New Line.SMT_10066 phases=1 bus1=46881.3 bus2= 46891.3 linecode=1_1 length=0.06083 units=km
New Line.SMT_1139 phases=1 bus1=328801.1 bus2= 649051.1 linecode=1_1 length=0.06301 units=km
New Line.SMT_1140 phases=1 bus1=46911.1.4 bus2= 649071.1.4 linecode=23_1 length=0.08902 units=km
New Line.SMT_1141 phases=1 bus1=649071.1.4 bus2= 649081.1.4 linecode=23_1 length=0.10045 units=km
New Line.SMT_1142 phases=1 bus1=649081.1.4 bus2= 649091.1.4 linecode=23_1 length=0.07925 units=km
New Line.SMT_11613 phases=1 bus1=57051.2.4 bus2= 57061.2.4 linecode=23_1 length=0.05459 units=km
New Line.SMT_11614 phases=1 bus1=46291.2.4 bus2= 57031.2.4 linecode=23_1 length=0.08112 units=km
New Line.SMT_11615 phases=1 bus1=57031.2.4 bus2= 57051.2.4 linecode=23_1 length=0.15628 units=km
New Line.SMT_13059 phases=3 bus1=56571.1.2.3.4 bus2= 364931.1.2.3.4 linecode=35_3 length=0.04187 units=km
New Line.SMT_1373 phases=1 bus1=42341.2.4 bus2= 42361.2.4 linecode=23_1 length=0.17042 units=km
New Line.SMT_1379 phases=1 bus1=42361.2.4 bus2= 42391.2.4 linecode=23_1 length=0.06482 units=km
New Line.SMT_1454 phases=1 bus1=633542.2.4 bus2= 633551.2.4 linecode=23_1 length=0.12067 units=km
New Line.SMT_1455 phases=1 bus1=633551.2 bus2= 633561.2 linecode=1_1 length=0.13535 units=km
New Line.SMT_14641 phases=1 bus1=59191.1.4 bus2= 10651.1.4 linecode=23_1 length=0.08081 units=km
New Line.SMT_14642 phases=1 bus1=10651.1.4 bus2= 10671.1.4 linecode=23_1 length=0.06877 units=km
New Line.SMT_14643 phases=1 bus1=10671.1.4 bus2= 10691.1.4 linecode=23_1 length=0.11739 units=km
New Line.SMT_14682 phases=1 bus1=10691.1.4 bus2= 10701.1.4 linecode=23_1 length=0.11129 units=km
New Line.SMT_14683 phases=1 bus1=10701.1.4 bus2= 582891.1.4 linecode=23_1 length=0.11279 units=km
New Line.SMT_14684 phases=1 bus1=582891.1.4 bus2= 582901.1.4 linecode=23_1 length=0.10458 units=km
New Line.SMT_1501 phases=1 bus1=619141.1 bus2= 563751.1 linecode=1_1 length=0.1303 units=km
New Line.SMT_15146 phases=1 bus1=582901.1.4 bus2= 582911.1.4 linecode=23_1 length=0.13124 units=km
New Line.SMT_15147 phases=1 bus1=582911.1.4 bus2= 582921.1.4 linecode=23_1 length=0.11833 units=km
New Line.SMT_15634 phases=1 bus1=46001.3 bus2= 46021.3 linecode=1_1 length=0.05025 units=km
New Line.SMT_16232 phases=1 bus1=342291.3 bus2= 667281.3 linecode=29_1 length=0.0365 units=km
New Line.SMT_16529 phases=1 bus1=57141.3 bus2= 57161.3 linecode=1_1 length=0.11512 units=km
New Line.SMT_16591 phases=1 bus1=619061.1 bus2= 619071.1 linecode=1_1 length=0.1373 units=km
New Line.SMT_16592 phases=1 bus1=619071.1 bus2= 619081.1 linecode=1_1 length=0.11177 units=km
New Line.SMT_16637 phases=1 bus1=23151.2.4 bus2= 386401.2.4 linecode=23_1 length=0.08161 units=km
New Line.SMT_16648 phases=1 bus1=46021.3 bus2= 46031.3 linecode=1_1 length=0.06129 units=km
New Line.SMT_16672 phases=1 bus1=619081.1 bus2= 619091.1 linecode=1_1 length=0.0943 units=km
New Line.SMT_16679 phases=1 bus1=619091.1 bus2= 619101.1 linecode=1_1 length=0.16091 units=km
New Line.SMT_16745 phases=1 bus1=47461.1 bus2= 47471.1 linecode=1_1 length=0.10202 units=km
New Line.SMT_16750 phases=1 bus1=630481.1 bus2= 630491.1 linecode=1_1 length=0.07295 units=km
New Line.SMT_16771 phases=1 bus1=11621.2.4 bus2= 11641.2.4 linecode=23_1 length=0.08927 units=km
New Line.SMT_16857 phases=1 bus1=67151.3.4 bus2= 67211.3.4 linecode=23_1 length=0.11002 units=km
New Line.SMT_16858 phases=1 bus1=67211.3.4 bus2= 67221.3.4 linecode=23_1 length=0.10708 units=km
New Line.SMT_16876 phases=1 bus1=11641.2.4 bus2= 330541.2.4 linecode=23_1 length=0.15667 units=km
New Line.SMT_16885 phases=1 bus1=57161.3 bus2= 57171.3 linecode=1_1 length=0.08276 units=km
New Line.SMT_16889 phases=1 bus1=563751.1 bus2= 619151.1 linecode=1_1 length=0.23147 units=km
New Line.SMT_16890 phases=1 bus1=619151.1 bus2= 619161.1 linecode=1_1 length=0.09155 units=km
New Line.SMT_16914 phases=1 bus1=11561.2.4 bus2= 609271.2.4 linecode=23_1 length=0.00187 units=km
New Line.SMT_16957 phases=1 bus1=57171.3 bus2= 540451.3 linecode=1_1 length=0.04785 units=km
New Line.SMT_16994 phases=1 bus1=642781.3 bus2= 45941.3 linecode=1_1 length=0.19449 units=km
New Line.SMT_17073 phases=1 bus1=619101.1 bus2= 619111.1 linecode=1_1 length=0.09266 units=km
New Line.SMT_17074 phases=1 bus1=619101.1 bus2= 619141.1 linecode=1_1 length=0.13039 units=km
New Line.SMT_17112 phases=1 bus1=45951.3 bus2= 45961.3 linecode=1_1 length=0.15785 units=km
New Line.SMT_17147 phases=1 bus1=45961.3 bus2= 45971.3 linecode=1_1 length=0.1841 units=km
New Line.SMT_17192 phases=1 bus1=58821.1 bus2= 58831.1 linecode=1_1 length=0.08065 units=km
New Line.SMT_17201 phases=3 bus1=11541.1.2.3.4 bus2= 609251.1.2.3.4 linecode=35_3 length=0.00236 units=km
New Line.SMT_17269 phases=1 bus1=12CF738.1 bus2= 629381.1 linecode=1_1 length=0.09592 units=km
New Line.SMT_17279 phases=1 bus1=46131.1 bus2= 46141.1 linecode=1_1 length=0.31352 units=km
New Line.SMT_17280 phases=1 bus1=46141.1 bus2= 587201.1 linecode=1_1 length=0.06398 units=km
New Line.SMT_17294 phases=1 bus1=587201.1 bus2= 46151.1 linecode=1_1 length=0.06888 units=km
New Line.SMT_17295 phases=1 bus1=11671.2 bus2= 676801.2 linecode=1_1 length=0.04571 units=km
New Line.SMT_17341 phases=1 bus1=12CF1148.1 bus2= 619061.1 linecode=1_1 length=0.09736 units=km
New Line.SMT_17351 phases=1 bus1=44941.3.4 bus2= 44971.3.4 linecode=23_1 length=0.09867 units=km
New Line.SMT_17398 phases=1 bus1=343381.1 bus2= 343391.1 linecode=1_1 length=0.12317 units=km
New Line.SMT_17437 phases=1 bus1=11691.2 bus2= 11701.2 linecode=1_1 length=0.23743 units=km
New Line.SMT_17531 phases=3 bus1=74221.1.2.3 bus2= 613051.1.2.3 linecode=2_3 length=0.00503 units=km
New Line.SMT_17572 phases=1 bus1=57091.3 bus2= 540371.3 linecode=1_1 length=0.00224 units=km
New Line.SMT_17588 phases=1 bus1=61851.3.4 bus2= 61861.3.4 linecode=23_1 length=0.05204 units=km
New Line.SMT_17688 phases=1 bus1=58701.1 bus2= 472531.1 linecode=29_1 length=0.07181 units=km
New Line.SMT_17745 phases=1 bus1=49691.1 bus2= 629401.1 linecode=1_1 length=0.00473 units=km
New Line.SMT_17975 phases=1 bus1=343601.3 bus2= 650591.3 linecode=1_1 length=0.05955 units=km
New Line.SMT_17976 phases=1 bus1=650591.3 bus2= 650601.3 linecode=1_1 length=0.13018 units=km
New Line.SMT_17977 phases=1 bus1=650601.3 bus2= 650611.3 linecode=1_1 length=0.19267 units=km
New Line.SMT_17985 phases=1 bus1=11661.2.4 bus2= 11671.2.4 linecode=23_1 length=0.10456 units=km
New Line.SMT_17986 phases=1 bus1=11651.2.4 bus2= 11661.2.4 linecode=23_1 length=0.0712 units=km
New Line.SMT_17987 phases=1 bus1=630491.1 bus2= 630501.1 linecode=1_1 length=0.0857 units=km
New Line.SMT_17996 phases=1 bus1=44941.3.4 bus2= 44931.3.4 linecode=23_1 length=0.06106 units=km
New Line.SMT_17998 phases=1 bus1=44931.3.4 bus2= 44921.3.4 linecode=23_1 length=0.1192 units=km
New Line.SMT_17999 phases=1 bus1=44901.3.4 bus2= 44891.3.4 linecode=23_1 length=0.07857 units=km
New Line.SMT_18021 phases=1 bus1=46301.2.4 bus2= 46311.2.4 linecode=23_1 length=0.05636 units=km
New Line.SMT_18022 phases=1 bus1=46311.2.4 bus2= 38221.2.4 linecode=23_1 length=0.12369 units=km
New Line.SMT_18023 phases=1 bus1=38221.2.4 bus2= 38231.2.4 linecode=23_1 length=0.09872 units=km
New Line.SMT_18024 phases=1 bus1=57011.2.4 bus2= 57021.2.4 linecode=23_1 length=0.1414 units=km
New Line.SMT_18220 phases=1 bus1=54301.2.4 bus2= 639931.2.4 linecode=23_1 length=0.10286 units=km
New Line.SMT_18754 phases=3 bus1=310921.1.2.3.4 bus2= 310931.1.2.3.4 linecode=35_3 length=0.0197 units=km
New Line.SMT_18765 phases=3 bus1=46271.1.2.3.4 bus2= 697621.1.2.3.4 linecode=35_3 length=0.03188 units=km
New Line.SMT_19299 phases=3 bus1=1_MIRA_1.1.2.3 bus2= 318651.1.2.3 linecode=10_3 length=0.08463 units=km
New Line.SMT_19300 phases=3 bus1=1431.1.2.3 bus2= 24581.1.2.3 linecode=10_3 length=0.00324 units=km
New Line.SMT_19301 phases=3 bus1=54221.1.2.3.4 bus2= 54231.1.2.3.4 linecode=35_3 length=0.11885 units=km
New Line.SMT_19302 phases=3 bus1=54231.1.2.3.4 bus2= 54241.1.2.3.4 linecode=35_3 length=0.196 units=km
New Line.SMT_19303 phases=3 bus1=45081.1.2.3.4 bus2= 45091.1.2.3.4 linecode=35_3 length=0.12536 units=km
New Line.SMT_19305 phases=3 bus1=310951.1.2.3.4 bus2= 310961.1.2.3.4 linecode=35_3 length=0.04687 units=km
New Line.SMT_19307 phases=3 bus1=44871.1.2.3.4 bus2= 44881.1.2.3.4 linecode=35_3 length=0.09702 units=km
New Line.SMT_19308 phases=3 bus1=1431.1.2.3.4 bus2= 1421.1.2.3.4 linecode=35_3 length=0.09543 units=km
New Line.SMT_19309 phases=3 bus1=1401.1.2.3.4 bus2= 1391.1.2.3.4 linecode=35_3 length=0.0994 units=km
New Line.SMT_19349 phases=3 bus1=65801.1.2.3.4 bus2= 65811.1.2.3.4 linecode=35_3 length=0.10417 units=km
New Line.SMT_19350 phases=3 bus1=62581.1.2.3 bus2= 62591.1.2.3 linecode=35_3 length=0.09665 units=km
New Line.SMT_19352 phases=3 bus1=461.1.2.3.4 bus2= 49181.1.2.3.4 linecode=35_3 length=0.10231 units=km
New Line.SMT_19354 phases=3 bus1=57221.1.2.3.4 bus2= 57211.1.2.3.4 linecode=35_3 length=0.07669 units=km
New Line.SMT_19355 phases=3 bus1=45391.1.2.3.4 bus2= 45381.1.2.3.4 linecode=35_3 length=0.11416 units=km
New Line.SMT_19356 phases=1 bus1=14071.3.4 bus2= 68991.3.4 linecode=23_1 length=0.0023 units=km
New Line.SMT_19357 phases=1 bus1=21581.1.4 bus2= 21591.1.4 linecode=23_1 length=0.0995 units=km
New Line.SMT_19358 phases=1 bus1=32061.1 bus2= 32071.1 linecode=1_1 length=0.07151 units=km
New Line.SMT_19359 phases=1 bus1=32091.1 bus2= 587381.1 linecode=1_1 length=0.04374 units=km
New Line.SMT_19361 phases=3 bus1=11721.1.2.3.4 bus2= 11711.1.2.3.4 linecode=35_3 length=0.10819 units=km
New Line.SMT_19363 phases=3 bus1=42561.1.2.3 bus2= 42551.1.2.3 linecode=2_3 length=0.08914 units=km
New Line.SMT_19403 phases=3 bus1=42541.1.2.3 bus2= 22281.1.2.3 linecode=2_3 length=0.08287 units=km
New Line.SMT_19404 phases=3 bus1=22141.1.2.3 bus2= 22131.1.2.3 linecode=2_3 length=0.08949 units=km
New Line.SMT_19405 phases=3 bus1=22131.1.2.3 bus2= 56651.1.2.3 linecode=2_3 length=0.10341 units=km
New Line.SMT_19406 phases=3 bus1=56551.1.2.3 bus2= 56531.1.2.3 linecode=2_3 length=0.07424 units=km
New Line.SMT_19407 phases=3 bus1=56531.1.2.3 bus2= 56511.1.2.3 linecode=2_3 length=0.14773 units=km
New Line.SMT_19409 phases=1 bus1=2691.3.4 bus2= 2721.3.4 linecode=23_1 length=0.08711 units=km
New Line.SMT_19410 phases=1 bus1=73091.1.4 bus2= 73101.1.4 linecode=23_1 length=0.0823 units=km
New Line.SMT_19411 phases=1 bus1=73101.1.4 bus2= 73131.1.4 linecode=23_1 length=0.09021 units=km
New Line.SMT_19412 phases=1 bus1=54311.2.4 bus2= 343621.2.4 linecode=23_1 length=0.18358 units=km
New Line.SMT_19413 phases=1 bus1=54331.2.4 bus2= 45171.2.4 linecode=23_1 length=0.27978 units=km
New Line.SMT_19414 phases=1 bus1=47281.3.4 bus2= 47291.3.4 linecode=23_1 length=0.10141 units=km
New Line.SMT_19415 phases=1 bus1=48171.3 bus2= 48181.3 linecode=1_1 length=0.08102 units=km
New Line.SMT_19416 phases=3 bus1=697621.1.2.3.4 bus2= 46261.1.2.3.4 linecode=35_3 length=0.0533 units=km
New Line.SMT_19425 phases=1 bus1=2641.3.4 bus2= 69031.3.4 linecode=23_1 length=0.0016 units=km
New Line.SMT_19458 phases=1 bus1=72211.3.4 bus2= 72221.3.4 linecode=23_1 length=0.08205 units=km
New Line.SMT_19459 phases=1 bus1=24241.2.4 bus2= 311981.2.4 linecode=23_1 length=0.1254 units=km
New Line.SMT_19461 phases=1 bus1=42201.2.4 bus2= 42211.2.4 linecode=23_1 length=0.11129 units=km
New Line.SMT_19462 phases=1 bus1=24371.2.4 bus2= 24351.2.4 linecode=23_1 length=0.113 units=km
New Line.SMT_19463 phases=3 bus1=56561.1.2.3 bus2= 56551.1.2.3 linecode=2_3 length=0.09405 units=km
New Line.SMT_19464 phases=3 bus1=56621.1.2.3 bus2= 56571.1.2.3 linecode=2_3 length=0.12398 units=km
New Line.SMT_19465 phases=3 bus1=22151.1.2.3 bus2= 22141.1.2.3 linecode=2_3 length=0.09521 units=km
New Line.SMT_19466 phases=3 bus1=22221.1.2.3 bus2= 22211.1.2.3 linecode=2_3 length=0.10402 units=km
New Line.SMT_19467 phases=3 bus1=22231.1.2.3 bus2= 22221.1.2.3 linecode=2_3 length=0.09901 units=km
New Line.SMT_19468 phases=3 bus1=22261.1.2.3 bus2= 22251.1.2.3 linecode=2_3 length=0.11063 units=km
New Line.SMT_19469 phases=3 bus1=22281.1.2.3 bus2= 22271.1.2.3 linecode=2_3 length=0.09048 units=km
New Line.SMT_19470 phases=3 bus1=42551.1.2.3 bus2= 42541.1.2.3 linecode=2_3 length=0.09808 units=km
New Line.SMT_19471 phases=1 bus1=58811.1 bus2= 58821.1 linecode=1_1 length=0.10058 units=km
New Line.SMT_19513 phases=3 bus1=72161.1.2.3 bus2= 72151.1.2.3 linecode=2_3 length=0.10312 units=km
New Line.SMT_19514 phases=1 bus1=73201.1.4 bus2= 59161.1.4 linecode=23_1 length=0.05955 units=km
New Line.SMT_19515 phases=1 bus1=59781.1.4 bus2= 59801.1.4 linecode=23_1 length=0.08693 units=km
New Line.SMT_19516 phases=3 bus1=609241.1.2.3 bus2= 11521.1.2.3 linecode=2_3 length=0.07877 units=km
New Line.SMT_19517 phases=3 bus1=11711.1.2.3.4 bus2= 11561.1.2.3.4 linecode=35_3 length=0.11201 units=km
New Line.SMT_19518 phases=1 bus1=41881.1 bus2= 21531.1 linecode=1_1 length=0.06075 units=km
New Line.SMT_19520 phases=3 bus1=67291.1.2.3.4 bus2= 47661.1.2.3.4 linecode=35_3 length=0.0815 units=km
New Line.SMT_19521 phases=3 bus1=53381.1.2.3.4 bus2= 53321.1.2.3.4 linecode=35_3 length=0.10791 units=km
New Line.SMT_19522 phases=3 bus1=53421.1.2.3.4 bus2= 53381.1.2.3.4 linecode=35_3 length=0.10904 units=km
New Line.SMT_19523 phases=3 bus1=53441.1.2.3.4 bus2= 53431.1.2.3.4 linecode=35_3 length=0.09998 units=km
New Line.SMT_19524 phases=3 bus1=53481.1.2.3.4 bus2= 53471.1.2.3.4 linecode=35_3 length=0.08797 units=km
New Line.SMT_19525 phases=3 bus1=12CS246.1.2.3.4 bus2= 53501.1.2.3.4 linecode=35_3 length=0.0642 units=km
New Line.SMT_19569 phases=3 bus1=45381.1.2.3.4 bus2= 45371.1.2.3.4 linecode=35_3 length=0.08443 units=km
New Line.SMT_19570 phases=3 bus1=46041.1.2.3.4 bus2= 45391.1.2.3.4 linecode=35_3 length=0.09534 units=km
New Line.SMT_19571 phases=1 bus1=3941.3.4 bus2= 3951.3.4 linecode=23_1 length=0.11543 units=km
New Line.SMT_19572 phases=3 bus1=46201.1.2.3 bus2= 46191.1.2.3 linecode=10_3 length=0.12365 units=km
New Line.SMT_19573 phases=3 bus1=46261.1.2.3.4 bus2= 46251.1.2.3.4 linecode=35_3 length=0.09996 units=km
New Line.SMT_19574 phases=1 bus1=47341.3.4 bus2= 47351.3.4 linecode=23_1 length=0.08528 units=km
New Line.SMT_19575 phases=1 bus1=49091.2 bus2= 610071.2 linecode=1_1 length=0.00186 units=km
New Line.SMT_19576 phases=3 bus1=49141.1.2.3.4 bus2= 49131.1.2.3.4 linecode=35_3 length=0.07901 units=km
New Line.SMT_19577 phases=3 bus1=49161.1.2.3.4 bus2= 49151.1.2.3.4 linecode=35_3 length=0.0831 units=km
New Line.SMT_19579 phases=1 bus1=49191.2.4 bus2= 49201.2.4 linecode=23_1 length=0.10231 units=km
New Line.SMT_19580 phases=3 bus1=57871.1.2.3 bus2= 451161.1.2.3 linecode=35_3 length=0.00207 units=km
New Line.SMT_19581 phases=3 bus1=551.1.2.3.4 bus2= 541.1.2.3.4 linecode=35_3 length=0.0689 units=km
New Line.SMT_19582 phases=1 bus1=61771.3.4 bus2= 61781.3.4 linecode=23_1 length=0.08994 units=km
New Line.SMT_19583 phases=1 bus1=61741.3.4 bus2= 61751.3.4 linecode=23_1 length=0.09122 units=km
New Line.SMT_19626 phases=3 bus1=1341.1.2.3.4 bus2= 1331.1.2.3.4 linecode=35_3 length=0.065 units=km
New Line.SMT_19627 phases=3 bus1=1361.1.2.3.4 bus2= 1351.1.2.3.4 linecode=35_3 length=0.07393 units=km
New Line.SMT_19629 phases=1 bus1=31761.3.4 bus2= 31771.3.4 linecode=23_1 length=0.09391 units=km
New Line.SMT_19630 phases=1 bus1=61881.3.4 bus2= 360921.3.4 linecode=23_1 length=0.18007 units=km
New Line.SMT_19631 phases=3 bus1=1441.1.2.3.4 bus2= 1431.1.2.3.4 linecode=35_3 length=0.08 units=km
New Line.SMT_19632 phases=3 bus1=44881.1.2.3.4 bus2= 44961.1.2.3.4 linecode=35_3 length=0.0781 units=km
New Line.SMT_19633 phases=3 bus1=67261.1.2.3.4 bus2= 67271.1.2.3.4 linecode=35_3 length=0.10837 units=km
New Line.SMT_19634 phases=3 bus1=1481.1.2.3.4 bus2= 1471.1.2.3.4 linecode=35_3 length=0.11028 units=km
New Line.SMT_19635 phases=3 bus1=67271.1.2.3.4 bus2= 67281.1.2.3.4 linecode=35_3 length=0.1161 units=km
New Line.SMT_19636 phases=3 bus1=44861.1.2.3.4 bus2= 44871.1.2.3.4 linecode=35_3 length=0.0939 units=km
New Line.SMT_19637 phases=3 bus1=1491.1.2.3.4 bus2= 1481.1.2.3.4 linecode=35_3 length=0.09218 units=km
New Line.SMT_19638 phases=3 bus1=1511.1.2.3.4 bus2= 1501.1.2.3.4 linecode=35_3 length=0.08112 units=km
New Line.SMT_19681 phases=3 bus1=54081.1.2.3.4 bus2= 54171.1.2.3.4 linecode=35_3 length=0.10469 units=km
New Line.SMT_19682 phases=3 bus1=462571.1.2.3.4 bus2= 462581.1.2.3.4 linecode=35_3 length=0.11271 units=km
New Line.SMT_19683 phases=3 bus1=12CF965.1.2.3.4 bus2= 44221.1.2.3.4 linecode=35_3 length=0.09501 units=km
New Line.SMT_19684 phases=3 bus1=45101.1.2.3.4 bus2= 45111.1.2.3.4 linecode=35_3 length=0.13538 units=km
New Line.SMT_19686 phases=3 bus1=54251.1.2.3.4 bus2= 54261.1.2.3.4 linecode=35_3 length=0.11846 units=km
New Line.SMT_19687 phases=3 bus1=54281.1.2.3.4 bus2= 44201.1.2.3.4 linecode=35_3 length=0.09946 units=km
New Line.SMT_19688 phases=3 bus1=44201.1.2.3.4 bus2= 45041.1.2.3.4 linecode=35_3 length=0.15037 units=km
New Line.SMT_19731 phases=1 bus1=24391.2.4 bus2= 24371.2.4 linecode=23_1 length=0.08782 units=km
New Line.SMT_1977 phases=1 bus1=14121.3.4 bus2= 581371.3.4 linecode=23_1 length=0.14374 units=km
New Line.SMT_20380 phases=1 bus1=46031.3 bus2= 46881.3 linecode=1_1 length=0.06313 units=km
New Line.SMT_2060 phases=1 bus1=581371.3.4 bus2= 14211.3.4 linecode=23_1 length=0.17452 units=km
New Line.SMT_2099 phases=1 bus1=31941.1.4 bus2= 156191.1.4 linecode=23_1 length=0.09139 units=km
New Line.SMT_21931 phases=1 bus1=73001.2 bus2= 73011.2 linecode=1_1 length=0.07401 units=km
New Line.SMT_21982 phases=1 bus1=73011.2 bus2= 73031.2 linecode=1_1 length=0.04031 units=km
New Line.SMT_21983 phases=1 bus1=72981.2 bus2= 72991.2 linecode=1_1 length=0.1037 units=km
New Line.SMT_21986 phases=1 bus1=72991.2 bus2= 73001.2 linecode=1_1 length=0.08944 units=km
New Line.SMT_22878 phases=1 bus1=22101.1.4 bus2= 22111.1.4 linecode=23_1 length=0.09166 units=km
New Line.SMT_22921 phases=3 bus1=67311.1.2.3.4 bus2= 67301.1.2.3.4 linecode=35_3 length=0.09291 units=km
New Line.SMT_22922 phases=1 bus1=49611.1.4 bus2= 49671.1.4 linecode=23_1 length=0.18292 units=km
New Line.SMT_22923 phases=3 bus1=45371.1.2.3.4 bus2= 45361.1.2.3.4 linecode=35_3 length=0.11681 units=km
New Line.SMT_22924 phases=3 bus1=57251.1.2.3 bus2= 57231.1.2.3 linecode=10_3 length=0.07049 units=km
New Line.SMT_22925 phases=3 bus1=1271.1.2.3.4 bus2= 561.1.2.3.4 linecode=35_3 length=0.11236 units=km
New Line.SMT_22926 phases=1 bus1=65311.3.4 bus2= 65321.3.4 linecode=23_1 length=0.07524 units=km
New Line.SMT_22927 phases=3 bus1=44221.1.2.3.4 bus2= 44231.1.2.3.4 linecode=35_3 length=0.08981 units=km
New Line.SMT_22928 phases=3 bus1=462581.1.2.3.4 bus2= 462591.1.2.3.4 linecode=35_3 length=0.0822 units=km
New Line.SMT_22929 phases=3 bus1=45811.1.2.3.4 bus2= 45871.1.2.3.4 linecode=35_3 length=0.06989 units=km
New Line.SMT_22930 phases=3 bus1=342341.1.2.3.4 bus2= 310921.1.2.3.4 linecode=35_3 length=0.01 units=km
New Line.SMT_23510 phases=3 bus1=45871.1.2.3.4 bus2= 661571.1.2.3.4 linecode=35_3 length=0.12945 units=km
New Line.SMT_2398 phases=1 bus1=45811.3 bus2= 642771.3 linecode=1_1 length=0.0013 units=km
New Line.SMT_2399 phases=1 bus1=45831.3 bus2= 361721.3 linecode=1_1 length=0.21368 units=km
New Line.SMT_24151 phases=1 bus1=45821.3 bus2= 45831.3 linecode=1_1 length=0.1343 units=km
New Line.SMT_24196 phases=1 bus1=45301.1 bus2= 45321.1 linecode=1_1 length=0.09213 units=km
New Line.SMT_24197 phases=1 bus1=45341.1 bus2= 322131.1 linecode=1_1 length=0.09176 units=km
New Line.SMT_24233 phases=1 bus1=58811.1 bus2= 368741.1 linecode=1_1 length=0.00335 units=km
New Line.SMT_2434 phases=1 bus1=12CF1061.3 bus2= 642781.3 linecode=1_1 length=0.00081 units=km
New Line.SMT_24384 phases=3 bus1=11561.1.2.3.4 bus2= 11551.1.2.3.4 linecode=35_3 length=0.21173 units=km
New Line.SMT_24397 phases=1 bus1=49581.1 bus2= 294731.1 linecode=29_1 length=0.10904 units=km
New Line.SMT_24398 phases=1 bus1=294741.1 bus2= 277441.1 linecode=29_1 length=0.08682 units=km
New Line.SMT_24399 phases=1 bus1=277441.1 bus2= 670011.1 linecode=29_1 length=0.10124 units=km
New Line.SMT_24400 phases=1 bus1=670011.1 bus2= 670021.1 linecode=29_1 length=0.09108 units=km
New Line.SMT_24401 phases=1 bus1=670021.1 bus2= 670031.1 linecode=29_1 length=0.05376 units=km
New Line.SMT_24405 phases=1 bus1=667281.3 bus2= 667291.3 linecode=29_1 length=0.09946 units=km
New Line.SMT_24406 phases=1 bus1=667291.3 bus2= 667301.3 linecode=29_1 length=0.09416 units=km
New Line.SMT_24407 phases=1 bus1=667301.3 bus2= 671121.3 linecode=29_1 length=0.0974 units=km
New Line.SMT_24660 phases=1 bus1=642781.3 bus2= 45821.3 linecode=1_1 length=0.08901 units=km
New Line.SMT_24898 phases=3 bus1=62591.1.2.3 bus2= 312171.1.2.3 linecode=35_3 length=0.10198 units=km
New Line.SMT_24921 phases=3 bus1=11531.1.2.3 bus2= 609241.1.2.3 linecode=2_3 length=0.07058 units=km
New Line.SMT_25460 phases=3 bus1=57111.1.2.3.4 bus2= 57101.1.2.3.4 linecode=35_3 length=0.08415 units=km
New Line.SMT_25463 phases=1 bus1=38231.2.4 bus2= 57011.2.4 linecode=23_1 length=0.11511 units=km
New Line.SMT_25464 phases=3 bus1=49111.1.2.3.4 bus2= 49101.1.2.3.4 linecode=35_3 length=0.0781 units=km
New Line.SMT_25483 phases=3 bus1=49151.1.2.3.4 bus2= 49141.1.2.3.4 linecode=35_3 length=0.08215 units=km
New Line.SMT_25484 phases=1 bus1=51261.3.4 bus2= 51281.3.4 linecode=23_1 length=0.2378 units=km
New Line.SMT_25485 phases=3 bus1=62571.1.2.3 bus2= 62581.1.2.3 linecode=35_3 length=0.10197 units=km
New Line.SMT_25486 phases=3 bus1=61561.1.2.3 bus2= 61581.1.2.3 linecode=35_3 length=0.0942 units=km
New Line.SMT_25487 phases=3 bus1=57871.1.2.3.4 bus2= 61541.1.2.3.4 linecode=35_3 length=0.0907 units=km
New Line.SMT_25488 phases=3 bus1=491.1.2.3.4 bus2= 481.1.2.3.4 linecode=35_3 length=0.09114 units=km
New Line.SMT_25489 phases=1 bus1=61611.3.4 bus2= 61621.3.4 linecode=23_1 length=0.08071 units=km
New Line.SMT_25490 phases=3 bus1=561.1.2.3.4 bus2= 551.1.2.3.4 linecode=35_3 length=0.10742 units=km
New Line.SMT_25491 phases=1 bus1=61831.3.4 bus2= 61901.3.4 linecode=23_1 length=0.09026 units=km
New Line.SMT_25492 phases=1 bus1=61781.3.4 bus2= 61791.3.4 linecode=23_1 length=0.09437 units=km
New Line.SMT_25493 phases=3 bus1=1331.1.2.3.4 bus2= 1271.1.2.3.4 linecode=35_3 length=0.11454 units=km
New Line.SMT_25494 phases=3 bus1=1381.1.2.3.4 bus2= 1371.1.2.3.4 linecode=35_3 length=0.0933 units=km
New Line.SMT_25495 phases=3 bus1=1421.1.2.3.4 bus2= 358901.1.2.3.4 linecode=35_3 length=0.00093 units=km
New Line.SMT_25496 phases=3 bus1=1501.1.2.3.4 bus2= 1491.1.2.3.4 linecode=35_3 length=0.0743 units=km
New Line.SMT_25497 phases=3 bus1=44251.1.2.3.4 bus2= 44861.1.2.3.4 linecode=35_3 length=0.09851 units=km
New Line.SMT_25525 phases=3 bus1=1521.1.2.3.4 bus2= 1511.1.2.3.4 linecode=35_3 length=0.08392 units=km
New Line.SMT_25526 phases=3 bus1=54171.1.2.3.4 bus2= 54191.1.2.3.4 linecode=35_3 length=0.0999 units=km
New Line.SMT_25528 phases=3 bus1=54211.1.2.3.4 bus2= 54221.1.2.3.4 linecode=35_3 length=0.08355 units=km
New Line.SMT_25530 phases=3 bus1=44211.1.2.3.4 bus2= 580591.1.2.3.4 linecode=35_3 length=0.00261 units=km
New Line.SMT_25534 phases=3 bus1=342341.1.2.3.4 bus2= 310951.1.2.3.4 linecode=35_3 length=0.02927 units=km
New Line.SMT_25625 phases=3 bus1=22281.1.2.3 bus2= 640501.1.2.3 linecode=10_3 length=0.10348 units=km
New Line.SMT_25627 phases=3 bus1=2641.1.2.3 bus2= 2631.1.2.3 linecode=2_3 length=0.08544 units=km
New Line.SMT_25628 phases=3 bus1=72151.1.2.3 bus2= 72141.1.2.3 linecode=2_3 length=0.11016 units=km
New Line.SMT_25629 phases=3 bus1=11501.1.2.3 bus2= 11491.1.2.3 linecode=2_3 length=0.1006 units=km
New Line.SMT_25630 phases=3 bus1=53321.1.2.3.4 bus2= 53301.1.2.3.4 linecode=35_3 length=0.09179 units=km
New Line.SMT_25631 phases=1 bus1=587381.1 bus2= 587391.1 linecode=1_1 length=0.13892 units=km
New Line.SMT_25632 phases=3 bus1=45361.1.2.3.4 bus2= 45221.1.2.3.4 linecode=35_3 length=0.09398 units=km
New Line.SMT_25633 phases=1 bus1=63881.3.4 bus2= 63891.3.4 linecode=23_1 length=0.08732 units=km
New Line.SMT_25634 phases=1 bus1=3911.3.4 bus2= 3921.3.4 linecode=23_1 length=0.09365 units=km
New Line.SMT_25635 phases=1 bus1=328841.1 bus2= 295021.1 linecode=1_1 length=0.09992 units=km
New Line.SMT_26997 phases=1 bus1=3811.1.4 bus2= 3821.1.4 linecode=23_1 length=0.10026 units=km
New Line.SMT_27029 phases=1 bus1=64131.3 bus2= 64451.3 linecode=1_1 length=0.12893 units=km
New Line.SMT_27030 phases=1 bus1=56571.1 bus2= 56591.1 linecode=1_1 length=0.22686 units=km
New Line.SMT_27031 phases=1 bus1=56591.1 bus2= 56601.1 linecode=1_1 length=0.09027 units=km
New Line.SMT_27032 phases=1 bus1=56601.1 bus2= 56611.1 linecode=1_1 length=0.07122 units=km
New Line.SMT_27090 phases=1 bus1=652291.1 bus2= 10661.1 linecode=29_1 length=0.03764 units=km
New Line.SMT_27150 phases=1 bus1=10661.1 bus2= 251791.1 linecode=29_1 length=0.0264 units=km
New Line.SMT_27151 phases=1 bus1=251791.1 bus2= 578101.1 linecode=29_1 length=0.06807 units=km
New Line.SMT_2717 phases=1 bus1=32071.1 bus2= 32091.1 linecode=1_1 length=0.05099 units=km
New Line.SMT_27176 phases=3 bus1=62601.1.2.3 bus2= 670861.1.2.3 linecode=35_3 length=0.07961 units=km
New Line.SMT_27177 phases=1 bus1=670861.3 bus2= 670871.3 linecode=29_1 length=0.07521 units=km
New Line.SMT_27178 phases=1 bus1=670871.3 bus2= 670881.3 linecode=29_1 length=0.06466 units=km
New Line.SMT_27352 phases=3 bus1=739351.1.2.3 bus2= 739361.1.2.3 linecode=10_3 length=0.06306 units=km
New Line.SMT_27354 phases=3 bus1=739361.1.2.3 bus2= 739371.1.2.3 linecode=10_3 length=0.08349 units=km
New Line.SMT_27355 phases=3 bus1=739371.1.2.3 bus2= 739381.1.2.3 linecode=10_3 length=0.05914 units=km
New Line.SMT_27357 phases=1 bus1=678711.3 bus2= 62521.3 linecode=1_1 length=0.08964 units=km
New Line.SMT_27397 phases=1 bus1=65811.3 bus2= 713051.3 linecode=1_1 length=0.154 units=km
New Line.SMT_27398 phases=1 bus1=713051.3 bus2= 713061.3 linecode=1_1 length=0.09849 units=km
New Line.SMT_27525 phases=1 bus1=45081.1 bus2= 714251.1 linecode=23_1 length=0.12264 units=km
New Line.SMT_27668 phases=3 bus1=45801.1.2.3.4 bus2= 45811.1.2.3.4 linecode=35_3 length=0.20375 units=km
New Line.SMT_27669 phases=3 bus1=1391.1.2.3.4 bus2= 1381.1.2.3.4 linecode=35_3 length=0.0994 units=km
New Line.SMT_27670 phases=3 bus1=521.1.2.3.4 bus2= 54451.1.2.3.4 linecode=35_3 length=0.00167 units=km
New Line.SMT_27671 phases=3 bus1=38181.1.2.3.4 bus2= 38191.1.2.3.4 linecode=35_3 length=0.05604 units=km
New Line.SMT_27672 phases=3 bus1=38191.1.2.3.4 bus2= 38201.1.2.3.4 linecode=35_3 length=0.08702 units=km
New Line.SMT_27673 phases=3 bus1=8031.1.2.3 bus2= 62571.1.2.3 linecode=35_3 length=0.10062 units=km
New Line.SMT_27674 phases=3 bus1=49091.1.2.3.4 bus2= 49081.1.2.3.4 linecode=35_3 length=0.07455 units=km
New Line.SMT_27675 phases=1 bus1=322131.1 bus2= 45351.1 linecode=1_1 length=0.08096 units=km
New Line.SMT_27676 phases=1 bus1=61601.3.4 bus2= 61611.3.4 linecode=23_1 length=0.12369 units=km
New Line.SMT_27696 phases=1 bus1=51201.3.4 bus2= 739061.3.4 linecode=23_1 length=0.03864 units=km
New Line.SMT_27724 phases=3 bus1=38171.1.2.3.4 bus2= 38181.1.2.3.4 linecode=35_3 length=0.09505 units=km
New Line.SMT_27725 phases=3 bus1=45981.1.2.3.4 bus2= 45991.1.2.3.4 linecode=35_3 length=0.08322 units=km
New Line.SMT_27784 phases=3 bus1=62531.1.2.3 bus2= 739331.1.2.3 linecode=10_3 length=0.10767 units=km
New Line.SMT_27785 phases=3 bus1=739331.1.2.3 bus2= 739341.1.2.3 linecode=10_3 length=0.08515 units=km
New Line.SMT_27786 phases=3 bus1=739341.1.2.3 bus2= 739351.1.2.3 linecode=10_3 length=0.05522 units=km
New Line.SMT_28015 phases=3 bus1=46001.1.2.3.4 bus2= 702271.1.2.3.4 linecode=35_3 length=0.10108 units=km
New Line.SMT_28016 phases=3 bus1=61981.1.2.3.4 bus2= 702281.1.2.3.4 linecode=35_3 length=0.03068 units=km
New Line.SMT_28017 phases=3 bus1=38211.1.2.3.4 bus2= 702291.1.2.3.4 linecode=35_3 length=0.0522 units=km
New Line.SMT_28149 phases=1 bus1=48181.3 bus2= 48191.3 linecode=29_1 length=0.08006 units=km
New Line.SMT_28150 phases=1 bus1=48191.3 bus2= 62621.3 linecode=29_1 length=0.06801 units=km
New Line.SMT_28161 phases=1 bus1=59751.1 bus2= 59761.1 linecode=1_1 length=0.23048 units=km
New Line.SMT_28169 phases=1 bus1=325771.1 bus2= 32041.1 linecode=1_1 length=0.32033 units=km
New Line.SMT_28172 phases=1 bus1=386401.2.4 bus2= 714751.2.4 linecode=23_1 length=0.0611 units=km
New Line.SMT_28339 phases=1 bus1=63891.3 bus2= 63901.3 linecode=1_1 length=0.06003 units=km
New Line.SMT_28340 phases=1 bus1=63901.3 bus2= 63911.3 linecode=1_1 length=0.10296 units=km
New Line.SMT_28341 phases=1 bus1=63911.3 bus2= 63921.3 linecode=1_1 length=0.08683 units=km
New Line.SMT_28437 phases=1 bus1=70271.1 bus2= 70281.1 linecode=1_1 length=0.05201 units=km
New Line.SMT_28438 phases=1 bus1=10721.1 bus2= 70271.1 linecode=1_1 length=0.12675 units=km
New Line.SMT_28439 phases=1 bus1=10711.1 bus2= 10721.1 linecode=1_1 length=0.20116 units=km
New Line.SMT_28440 phases=1 bus1=10671.1 bus2= 10711.1 linecode=1_1 length=0.09105 units=km
New Line.SMT_28511 phases=1 bus1=24391.2 bus2= 358591.2 linecode=1_1 length=0.19412 units=km
New Line.SMT_28580 phases=1 bus1=23211.2 bus2= 23221.2 linecode=23_1 length=0.11542 units=km
New Line.SMT_28581 phases=1 bus1=23201.2 bus2= 23211.2 linecode=1_1 length=0.09835 units=km
New Line.SMT_28598 phases=1 bus1=75181.2 bus2= 75221.2 linecode=1_1 length=0.13762 units=km
New Line.SMT_28606 phases=1 bus1=676801.2 bus2= 11691.2 linecode=1_1 length=0.09784 units=km
New Line.SMT_28618 phases=3 bus1=57741.1.2.3.4 bus2= 57751.1.2.3.4 linecode=35_3 length=0.0712 units=km
New Line.SMT_28645 phases=1 bus1=75221.2 bus2= 75231.2 linecode=1_1 length=0.14001 units=km
New Line.SMT_28663 phases=1 bus1=418141.3.4 bus2= 418171.3.4 linecode=23_1 length=0.02648 units=km
New Line.SMT_28664 phases=1 bus1=418171.3.4 bus2= 418211.3.4 linecode=23_1 length=0.07533 units=km
New Line.SMT_28783 phases=1 bus1=47611.1 bus2= 250091.1 linecode=1_1 length=0.00256 units=km
New Line.SMT_28785 phases=1 bus1=12CF1368.1 bus2= 47631.1 linecode=23_1 length=0.04869 units=km
New Line.SMT_28968 phases=3 bus1=1461.1.2.3.4 bus2= 732671.1.2.3.4 linecode=35_3 length=0.00582 units=km