New Transformer.TRF_12_1013A phases=1 windings=3 buses=[MRT_24371TRF_12_1013A.2 ET12_1013.1.4 ET12_1013.4.2] conns=[Wye Wye Wye] kvs=[13.3367912182804 0.22 0.22] kvas=[15 15 15] %loadloss=1.766667 %noloadloss=0.433333
New Linecode.LC_MRT_TRF_12_1013A_1 nphases=1 basefreq=60 r1=15000 x1=0 units=km normamps=0
New Linecode.LC_MRT_TRF_12_1013A_2 nphases=2 basefreq=60 r1=15000 x1=0 units=km normamps=0
New Linecode.LC_MRT_TRF_12_1013A_3 nphases=3 basefreq=60 r1=15000 x1=0 units=km normamps=0
New Linecode.LC_MRT_TRF_12_1013A_4 nphases=4 basefreq=60 r1=15000 x1=0 units=km normamps=0
New Line.Resist_MTR_TRF_12_1013A phases=1 bus1=24371.2 bus2= MRT_24371TRF_12_1013A.2 linecode=LC_MRT_TRF_12_1013A_1 length=0.001 units=km
New Reactor.TRF_12_1013A_R phases=1 bus1=ET12_1013.4 R=15 X=0 basefreq=60
New Transformer.TRF_12_1014A phases=1 windings=3 buses=[MRT_24121TRF_12_1014A.2 ET12_1014.1.4 ET12_1014.4.2] conns=[Wye Wye Wye] kvs=[13.3367912182804 0.22 0.22] kvas=[15 15 15] %loadloss=1.766667 %noloadloss=0.433333
New Linecode.LC_MRT_TRF_12_1014A_1 nphases=1 basefreq=60 r1=15000 x1=0 units=km normamps=0
New Linecode.LC_MRT_TRF_12_1014A_2 nphases=2 basefreq=60 r1=15000 x1=0 units=km normamps=0
New Linecode.LC_MRT_TRF_12_1014A_3 nphases=3 basefreq=60 r1=15000 x1=0 units=km normamps=0
New Linecode.LC_MRT_TRF_12_1014A_4 nphases=4 basefreq=60 r1=15000 x1=0 units=km normamps=0
New Line.Resist_MTR_TRF_12_1014A phases=1 bus1=24121.2 bus2= MRT_24121TRF_12_1014A.2 linecode=LC_MRT_TRF_12_1014A_1 length=0.001 units=km
New Reactor.TRF_12_1014A_R phases=1 bus1=ET12_1014.4 R=15 X=0 basefreq=60
New Transformer.TRF_12_1015A phases=1 windings=3 buses=[MRT_24061TRF_12_1015A.2 ET12_1015.1.4 ET12_1015.4.2] conns=[Wye Wye Wye] kvs=[13.3367912182804 0.22 0.22] kvas=[25 25 25] %loadloss=1.56 %noloadloss=0.36
New Linecode.LC_MRT_TRF_12_1015A_1 nphases=1 basefreq=60 r1=15000 x1=0 units=km normamps=0
New Linecode.LC_MRT_TRF_12_1015A_2 nphases=2 basefreq=60 r1=15000 x1=0 units=km normamps=0
New Linecode.LC_MRT_TRF_12_1015A_3 nphases=3 basefreq=60 r1=15000 x1=0 units=km normamps=0
New Linecode.LC_MRT_TRF_12_1015A_4 nphases=4 basefreq=60 r1=15000 x1=0 units=km normamps=0
New Line.Resist_MTR_TRF_12_1015A phases=1 bus1=24061.2 bus2= MRT_24061TRF_12_1015A.2 linecode=LC_MRT_TRF_12_1015A_1 length=0.001 units=km
New Reactor.TRF_12_1015A_R phases=1 bus1=ET12_1015.4 R=15 X=0 basefreq=60
New Transformer.TRF_12_1016A phases=1 windings=3 buses=[MRT_42041TRF_12_1016A.2 ET12_1016.1.4 ET12_1016.4.2] conns=[Wye Wye Wye] kvs=[13.3367912182804 0.22 0.22] kvas=[15 15 15] %loadloss=1.766667 %noloadloss=0.433333
New Linecode.LC_MRT_TRF_12_1016A_1 nphases=1 basefreq=60 r1=15000 x1=0 units=km normamps=0
New Linecode.LC_MRT_TRF_12_1016A_2 nphases=2 basefreq=60 r1=15000 x1=0 units=km normamps=0
New Linecode.LC_MRT_TRF_12_1016A_3 nphases=3 basefreq=60 r1=15000 x1=0 units=km normamps=0
New Linecode.LC_MRT_TRF_12_1016A_4 nphases=4 basefreq=60 r1=15000 x1=0 units=km normamps=0
New Line.Resist_MTR_TRF_12_1016A phases=1 bus1=42041.2 bus2= MRT_42041TRF_12_1016A.2 linecode=LC_MRT_TRF_12_1016A_1 length=0.001 units=km
New Reactor.TRF_12_1016A_R phases=1 bus1=ET12_1016.4 R=15 X=0 basefreq=60
New Transformer.TRF_12_1017A phases=1 windings=3 buses=[MRT_58821TRF_12_1017A.1 ET12_1017.1.4 ET12_1017.4.2] conns=[Wye Wye Wye] kvs=[13.3367912182804 0.22 0.22] kvas=[10 10 10] %loadloss=1.95 %noloadloss=0.5
New Linecode.LC_MRT_TRF_12_1017A_1 nphases=1 basefreq=60 r1=15000 x1=0 units=km normamps=0
New Linecode.LC_MRT_TRF_12_1017A_2 nphases=2 basefreq=60 r1=15000 x1=0 units=km normamps=0
New Linecode.LC_MRT_TRF_12_1017A_3 nphases=3 basefreq=60 r1=15000 x1=0 units=km normamps=0
New Linecode.LC_MRT_TRF_12_1017A_4 nphases=4 basefreq=60 r1=15000 x1=0 units=km normamps=0
New Line.Resist_MTR_TRF_12_1017A phases=1 bus1=58821.1 bus2= MRT_58821TRF_12_1017A.1 linecode=LC_MRT_TRF_12_1017A_1 length=0.001 units=km
New Reactor.TRF_12_1017A_R phases=1 bus1=ET12_1017.4 R=15 X=0 basefreq=60
New Transformer.TRF_12_1027A phases=1 windings=3 buses=[MRT_42211TRF_12_1027A.2 ET12_1027.1.4 ET12_1027.4.2] conns=[Wye Wye Wye] kvs=[13.3367912182804 0.22 0.22] kvas=[15 15 15] %loadloss=1.766667 %noloadloss=0.433333
New Linecode.LC_MRT_TRF_12_1027A_1 nphases=1 basefreq=60 r1=15000 x1=0 units=km normamps=0
New Linecode.LC_MRT_TRF_12_1027A_2 nphases=2 basefreq=60 r1=15000 x1=0 units=km normamps=0
New Linecode.LC_MRT_TRF_12_1027A_3 nphases=3 basefreq=60 r1=15000 x1=0 units=km normamps=0
New Linecode.LC_MRT_TRF_12_1027A_4 nphases=4 basefreq=60 r1=15000 x1=0 units=km normamps=0
New Line.Resist_MTR_TRF_12_1027A phases=1 bus1=42211.2 bus2= MRT_42211TRF_12_1027A.2 linecode=LC_MRT_TRF_12_1027A_1 length=0.001 units=km
New Reactor.TRF_12_1027A_R phases=1 bus1=ET12_1027.4 R=15 X=0 basefreq=60
New Transformer.TRF_12_1122A phases=1 windings=3 buses=[MRT_57761TRF_12_1122A.3 ET12_1122.1.4 ET12_1122.4.2] conns=[Wye Wye Wye] kvs=[13.3367912182804 0.22 0.22] kvas=[15 15 15] %loadloss=1.766667 %noloadloss=0.433333
New Linecode.LC_MRT_TRF_12_1122A_1 nphases=1 basefreq=60 r1=15000 x1=0 units=km normamps=0
New Linecode.LC_MRT_TRF_12_1122A_2 nphases=2 basefreq=60 r1=15000 x1=0 units=km normamps=0
New Linecode.LC_MRT_TRF_12_1122A_3 nphases=3 basefreq=60 r1=15000 x1=0 units=km normamps=0
New Linecode.LC_MRT_TRF_12_1122A_4 nphases=4 basefreq=60 r1=15000 x1=0 units=km normamps=0
New Line.Resist_MTR_TRF_12_1122A phases=1 bus1=57761.3 bus2= MRT_57761TRF_12_1122A.3 linecode=LC_MRT_TRF_12_1122A_1 length=0.001 units=km
New Reactor.TRF_12_1122A_R phases=1 bus1=ET12_1122.4 R=15 X=0 basefreq=60
New Transformer.TRF_12_1123A phases=1 windings=3 buses=[MRT_61661TRF_12_1123A.3 ET12_1123.1.4 ET12_1123.4.2] conns=[Wye Wye Wye] kvs=[13.3367912182804 0.22 0.22] kvas=[15 15 15] %loadloss=1.766667 %noloadloss=0.433333
New Linecode.LC_MRT_TRF_12_1123A_1 nphases=1 basefreq=60 r1=15000 x1=0 units=km normamps=0
New Linecode.LC_MRT_TRF_12_1123A_2 nphases=2 basefreq=60 r1=15000 x1=0 units=km normamps=0
New Linecode.LC_MRT_TRF_12_1123A_3 nphases=3 basefreq=60 r1=15000 x1=0 units=km normamps=0
New Linecode.LC_MRT_TRF_12_1123A_4 nphases=4 basefreq=60 r1=15000 x1=0 units=km normamps=0
New Line.Resist_MTR_TRF_12_1123A phases=1 bus1=61661.3 bus2= MRT_61661TRF_12_1123A.3 linecode=LC_MRT_TRF_12_1123A_1 length=0.001 units=km
New Reactor.TRF_12_1123A_R phases=1 bus1=ET12_1123.4 R=15 X=0 basefreq=60
New Transformer.TRF_12_1124A phases=1 windings=3 buses=[MRT_8031TRF_12_1124A.3 ET12_1124.1.4 ET12_1124.4.2] conns=[Wye Wye Wye] kvs=[13.3367912182804 0.22 0.22] kvas=[15 15 15] %loadloss=1.766667 %noloadloss=0.433333
New Linecode.LC_MRT_TRF_12_1124A_1 nphases=1 basefreq=60 r1=15000 x1=0 units=km normamps=0
New Linecode.LC_MRT_TRF_12_1124A_2 nphases=2 basefreq=60 r1=15000 x1=0 units=km normamps=0
New Linecode.LC_MRT_TRF_12_1124A_3 nphases=3 basefreq=60 r1=15000 x1=0 units=km normamps=0
New Linecode.LC_MRT_TRF_12_1124A_4 nphases=4 basefreq=60 r1=15000 x1=0 units=km normamps=0
New Line.Resist_MTR_TRF_12_1124A phases=1 bus1=8031.3 bus2= MRT_8031TRF_12_1124A.3 linecode=LC_MRT_TRF_12_1124A_1 length=0.001 units=km
New Reactor.TRF_12_1124A_R phases=1 bus1=ET12_1124.4 R=15 X=0 basefreq=60
New Transformer.TRF_12_1125A phases=1 windings=3 buses=[MRT_3851TRF_12_1125A.3 ET12_1125.1.4 ET12_1125.4.2] conns=[Wye Wye Wye] kvs=[13.3367912182804 0.22 0.22] kvas=[25 25 25] %loadloss=1.56 %noloadloss=0.36
New Linecode.LC_MRT_TRF_12_1125A_1 nphases=1 basefreq=60 r1=15000 x1=0 units=km normamps=0
New Linecode.LC_MRT_TRF_12_1125A_2 nphases=2 basefreq=60 r1=15000 x1=0 units=km normamps=0
New Linecode.LC_MRT_TRF_12_1125A_3 nphases=3 basefreq=60 r1=15000 x1=0 units=km normamps=0
New Linecode.LC_MRT_TRF_12_1125A_4 nphases=4 basefreq=60 r1=15000 x1=0 units=km normamps=0
New Line.Resist_MTR_TRF_12_1125A phases=1 bus1=3851.3 bus2= MRT_3851TRF_12_1125A.3 linecode=LC_MRT_TRF_12_1125A_1 length=0.001 units=km
New Reactor.TRF_12_1125A_R phases=1 bus1=ET12_1125.4 R=15 X=0 basefreq=60
New Transformer.TRF_12_1126A phases=1 windings=3 buses=[MRT_63921TRF_12_1126A.3 ET12_1126.1.4 ET12_1126.4.2] conns=[Wye Wye Wye] kvs=[13.3367912182804 0.22 0.22] kvas=[15 15 15] %loadloss=1.766667 %noloadloss=0.433333
New Linecode.LC_MRT_TRF_12_1126A_1 nphases=1 basefreq=60 r1=15000 x1=0 units=km normamps=0
New Linecode.LC_MRT_TRF_12_1126A_2 nphases=2 basefreq=60 r1=15000 x1=0 units=km normamps=0
New Linecode.LC_MRT_TRF_12_1126A_3 nphases=3 basefreq=60 r1=15000 x1=0 units=km normamps=0
New Linecode.LC_MRT_TRF_12_1126A_4 nphases=4 basefreq=60 r1=15000 x1=0 units=km normamps=0
New Line.Resist_MTR_TRF_12_1126A phases=1 bus1=63921.3 bus2= MRT_63921TRF_12_1126A.3 linecode=LC_MRT_TRF_12_1126A_1 length=0.001 units=km
New Reactor.TRF_12_1126A_R phases=1 bus1=ET12_1126.4 R=15 X=0 basefreq=60
New Transformer.TRF_12_1127A phases=1 windings=3 buses=[MRT_45811TRF_12_1127A.2 ET12_1127.1.4 ET12_1127.4.2] conns=[Wye Wye Wye] kvs=[13.3367912182804 0.22 0.22] kvas=[10 10 10] %loadloss=1.95 %noloadloss=0.5
New Linecode.LC_MRT_TRF_12_1127A_1 nphases=1 basefreq=60 r1=15000 x1=0 units=km normamps=0
New Linecode.LC_MRT_TRF_12_1127A_2 nphases=2 basefreq=60 r1=15000 x1=0 units=km normamps=0
New Linecode.LC_MRT_TRF_12_1127A_3 nphases=3 basefreq=60 r1=15000 x1=0 units=km normamps=0
New Linecode.LC_MRT_TRF_12_1127A_4 nphases=4 basefreq=60 r1=15000 x1=0 units=km normamps=0
New Line.Resist_MTR_TRF_12_1127A phases=1 bus1=45811.2 bus2= MRT_45811TRF_12_1127A.2 linecode=LC_MRT_TRF_12_1127A_1 length=0.001 units=km
New Reactor.TRF_12_1127A_R phases=1 bus1=ET12_1127.4 R=15 X=0 basefreq=60
New Transformer.TRF_12_1134A phases=1 windings=3 buses=[MRT_64071TRF_12_1134A.2 ET12_1134.1.4 ET12_1134.4.2] conns=[Wye Wye Wye] kvs=[13.3367912182804 0.22 0.22] kvas=[15 15 15] %loadloss=1.766667 %noloadloss=0.433333
New Linecode.LC_MRT_TRF_12_1134A_1 nphases=1 basefreq=60 r1=15000 x1=0 units=km normamps=0
New Linecode.LC_MRT_TRF_12_1134A_2 nphases=2 basefreq=60 r1=15000 x1=0 units=km normamps=0
New Linecode.LC_MRT_TRF_12_1134A_3 nphases=3 basefreq=60 r1=15000 x1=0 units=km normamps=0
New Linecode.LC_MRT_TRF_12_1134A_4 nphases=4 basefreq=60 r1=15000 x1=0 units=km normamps=0
New Line.Resist_MTR_TRF_12_1134A phases=1 bus1=64071.2 bus2= MRT_64071TRF_12_1134A.2 linecode=LC_MRT_TRF_12_1134A_1 length=0.001 units=km
New Reactor.TRF_12_1134A_R phases=1 bus1=ET12_1134.4 R=15 X=0 basefreq=60
New Transformer.TRF_12_1135A phases=1 windings=3 buses=[MRT_14831TRF_12_1135A.3 ET12_1135.1.4 ET12_1135.4.2] conns=[Wye Wye Wye] kvs=[13.3367912182804 0.22 0.22] kvas=[10 10 10] %loadloss=1.95 %noloadloss=0.5
New Linecode.LC_MRT_TRF_12_1135A_1 nphases=1 basefreq=60 r1=15000 x1=0 units=km normamps=0
New Linecode.LC_MRT_TRF_12_1135A_2 nphases=2 basefreq=60 r1=15000 x1=0 units=km normamps=0
New Linecode.LC_MRT_TRF_12_1135A_3 nphases=3 basefreq=60 r1=15000 x1=0 units=km normamps=0
New Linecode.LC_MRT_TRF_12_1135A_4 nphases=4 basefreq=60 r1=15000 x1=0 units=km normamps=0
New Line.Resist_MTR_TRF_12_1135A phases=1 bus1=14831.3 bus2= MRT_14831TRF_12_1135A.3 linecode=LC_MRT_TRF_12_1135A_1 length=0.001 units=km
New Reactor.TRF_12_1135A_R phases=1 bus1=ET12_1135.4 R=15 X=0 basefreq=60
New Transformer.TRF_12_1426A phases=1 windings=3 buses=[MRT_54331TRF_12_1426A.2 ET12_1426.1.4 ET12_1426.4.2] conns=[Wye Wye Wye] kvs=[13.3367912182804 0.22 0.22] kvas=[10 10 10] %loadloss=1.95 %noloadloss=0.5
New Linecode.LC_MRT_TRF_12_1426A_1 nphases=1 basefreq=60 r1=15000 x1=0 units=km normamps=0
New Linecode.LC_MRT_TRF_12_1426A_2 nphases=2 basefreq=60 r1=15000 x1=0 units=km normamps=0
New Linecode.LC_MRT_TRF_12_1426A_3 nphases=3 basefreq=60 r1=15000 x1=0 units=km normamps=0
New Linecode.LC_MRT_TRF_12_1426A_4 nphases=4 basefreq=60 r1=15000 x1=0 units=km normamps=0
New Line.Resist_MTR_TRF_12_1426A phases=1 bus1=54331.2 bus2= MRT_54331TRF_12_1426A.2 linecode=LC_MRT_TRF_12_1426A_1 length=0.001 units=km
New Reactor.TRF_12_1426A_R phases=1 bus1=ET12_1426.4 R=15 X=0 basefreq=60
New Transformer.TRF_12_1427A phases=1 windings=3 buses=[MRT_75231TRF_12_1427A.2 ET12_1427.1.4 ET12_1427.4.2] conns=[Wye Wye Wye] kvs=[13.3367912182804 0.22 0.22] kvas=[10 10 10] %loadloss=1.95 %noloadloss=0.5
New Linecode.LC_MRT_TRF_12_1427A_1 nphases=1 basefreq=60 r1=15000 x1=0 units=km normamps=0
New Linecode.LC_MRT_TRF_12_1427A_2 nphases=2 basefreq=60 r1=15000 x1=0 units=km normamps=0
New Linecode.LC_MRT_TRF_12_1427A_3 nphases=3 basefreq=60 r1=15000 x1=0 units=km normamps=0
New Linecode.LC_MRT_TRF_12_1427A_4 nphases=4 basefreq=60 r1=15000 x1=0 units=km normamps=0
New Line.Resist_MTR_TRF_12_1427A phases=1 bus1=75231.2 bus2= MRT_75231TRF_12_1427A.2 linecode=LC_MRT_TRF_12_1427A_1 length=0.001 units=km
New Reactor.TRF_12_1427A_R phases=1 bus1=ET12_1427.4 R=15 X=0 basefreq=60
New Transformer.TRF_12_1698A phases=3 windings=2 buses=[342311.1.2.3 ET12_1698.1.2.3.4] conns=[Delta Wye] kvs=[23.1 0.38] kvas=[112.5 112.5] %loadloss=1.475556 %noloadloss=0.377777
New Reactor.TRF_12_1698A_R phases=1 bus1=ET12_1698.4 R=15 X=0 basefreq=60
New Transformer.TRF_12_1791A phases=1 windings=3 buses=[MRT_67151TRF_12_1791A.3 ET12_1791.1.4 ET12_1791.4.2] conns=[Wye Wye Wye] kvs=[13.3367912182804 0.22 0.22] kvas=[10 10 10] %loadloss=1.95 %noloadloss=0.5
New Linecode.LC_MRT_TRF_12_1791A_1 nphases=1 basefreq=60 r1=15000 x1=0 units=km normamps=0
New Linecode.LC_MRT_TRF_12_1791A_2 nphases=2 basefreq=60 r1=15000 x1=0 units=km normamps=0
New Linecode.LC_MRT_TRF_12_1791A_3 nphases=3 basefreq=60 r1=15000 x1=0 units=km normamps=0
New Linecode.LC_MRT_TRF_12_1791A_4 nphases=4 basefreq=60 r1=15000 x1=0 units=km normamps=0
New Line.Resist_MTR_TRF_12_1791A phases=1 bus1=67151.3 bus2= MRT_67151TRF_12_1791A.3 linecode=LC_MRT_TRF_12_1791A_1 length=0.001 units=km
New Reactor.TRF_12_1791A_R phases=1 bus1=ET12_1791.4 R=15 X=0 basefreq=60
New Transformer.TRF_12_1792A phases=1 windings=3 buses=[MRT_62531TRF_12_1792A.3 ET12_1792.1.4 ET12_1792.4.2] conns=[Wye Wye Wye] kvs=[13.3367912182804 0.22 0.22] kvas=[25 25 25] %loadloss=1.56 %noloadloss=0.36
New Linecode.LC_MRT_TRF_12_1792A_1 nphases=1 basefreq=60 r1=15000 x1=0 units=km normamps=0
New Linecode.LC_MRT_TRF_12_1792A_2 nphases=2 basefreq=60 r1=15000 x1=0 units=km normamps=0
New Linecode.LC_MRT_TRF_12_1792A_3 nphases=3 basefreq=60 r1=15000 x1=0 units=km normamps=0
New Linecode.LC_MRT_TRF_12_1792A_4 nphases=4 basefreq=60 r1=15000 x1=0 units=km normamps=0
New Line.Resist_MTR_TRF_12_1792A phases=1 bus1=62531.3 bus2= MRT_62531TRF_12_1792A.3 linecode=LC_MRT_TRF_12_1792A_1 length=0.001 units=km
New Reactor.TRF_12_1792A_R phases=1 bus1=ET12_1792.4 R=15 X=0 basefreq=60
New Transformer.TRF_12_1879A phases=1 windings=3 buses=[MRT_23141TRF_12_1879A.2 ET12_1879.1.4 ET12_1879.4.2] conns=[Wye Wye Wye] kvs=[13.3367912182804 0.22 0.22] kvas=[10 10 10] %loadloss=1.95 %noloadloss=0.5
New Linecode.LC_MRT_TRF_12_1879A_1 nphases=1 basefreq=60 r1=15000 x1=0 units=km normamps=0
New Linecode.LC_MRT_TRF_12_1879A_2 nphases=2 basefreq=60 r1=15000 x1=0 units=km normamps=0
New Linecode.LC_MRT_TRF_12_1879A_3 nphases=3 basefreq=60 r1=15000 x1=0 units=km normamps=0
New Linecode.LC_MRT_TRF_12_1879A_4 nphases=4 basefreq=60 r1=15000 x1=0 units=km normamps=0
New Line.Resist_MTR_TRF_12_1879A phases=1 bus1=23141.2 bus2= MRT_23141TRF_12_1879A.2 linecode=LC_MRT_TRF_12_1879A_1 length=0.001 units=km
New Reactor.TRF_12_1879A_R phases=1 bus1=ET12_1879.4 R=15 X=0 basefreq=60
New Transformer.TRF_12_2071A phases=3 windings=2 buses=[561.1.2.3 ET12_2071.1.2.3.4] conns=[Delta Wye] kvs=[23.1 0.38] kvas=[30 30] %loadloss=2.1 %noloadloss=0.533333
New Reactor.TRF_12_2071A_R phases=1 bus1=ET12_2071.4 R=15 X=0 basefreq=60
New Transformer.TRF_12_2095A phases=1 windings=3 buses=[MRT_311981TRF_12_2095A.2 ET12_2095.1.4 ET12_2095.4.2] conns=[Wye Wye Wye] kvs=[13.3367912182804 0.22 0.22] kvas=[15 15 15] %loadloss=1.766667 %noloadloss=0.433333
New Linecode.LC_MRT_TRF_12_2095A_1 nphases=1 basefreq=60 r1=15000 x1=0 units=km normamps=0
New Linecode.LC_MRT_TRF_12_2095A_2 nphases=2 basefreq=60 r1=15000 x1=0 units=km normamps=0
New Linecode.LC_MRT_TRF_12_2095A_3 nphases=3 basefreq=60 r1=15000 x1=0 units=km normamps=0
New Linecode.LC_MRT_TRF_12_2095A_4 nphases=4 basefreq=60 r1=15000 x1=0 units=km normamps=0
New Line.Resist_MTR_TRF_12_2095A phases=1 bus1=311981.2 bus2= MRT_311981TRF_12_2095A.2 linecode=LC_MRT_TRF_12_2095A_1 length=0.001 units=km
New Reactor.TRF_12_2095A_R phases=1 bus1=ET12_2095.4 R=15 X=0 basefreq=60
New Transformer.TRF_12_2110A phases=3 windings=2 buses=[310971.1.2.3 ET12_2110.1.2.3.4] conns=[Delta Wye] kvs=[23.1 0.38] kvas=[45 45] %loadloss=1.866667 %noloadloss=0.477777
New Reactor.TRF_12_2110A_R phases=1 bus1=ET12_2110.4 R=15 X=0 basefreq=60
New Transformer.TRF_12_2118A phases=1 windings=3 buses=[MRT_358881TRF_12_2118A.3 ET12_2118.1.4 ET12_2118.4.2] conns=[Wye Wye Wye] kvs=[13.3367912182804 0.22 0.22] kvas=[5 5 5] %loadloss=2.1 %noloadloss=0.7
New Linecode.LC_MRT_TRF_12_2118A_1 nphases=1 basefreq=60 r1=15000 x1=0 units=km normamps=0
New Linecode.LC_MRT_TRF_12_2118A_2 nphases=2 basefreq=60 r1=15000 x1=0 units=km normamps=0
New Linecode.LC_MRT_TRF_12_2118A_3 nphases=3 basefreq=60 r1=15000 x1=0 units=km normamps=0
New Linecode.LC_MRT_TRF_12_2118A_4 nphases=4 basefreq=60 r1=15000 x1=0 units=km normamps=0
New Line.Resist_MTR_TRF_12_2118A phases=1 bus1=358881.3 bus2= MRT_358881TRF_12_2118A.3 linecode=LC_MRT_TRF_12_2118A_1 length=0.001 units=km
New Reactor.TRF_12_2118A_R phases=1 bus1=ET12_2118.4 R=15 X=0 basefreq=60
New Transformer.TRF_12_2120A phases=1 windings=3 buses=[MRT_311901TRF_12_2120A.2 ET12_2120.1.4 ET12_2120.4.2] conns=[Wye Wye Wye] kvs=[13.3367912182804 0.22 0.22] kvas=[5 5 5] %loadloss=2.1 %noloadloss=0.7
New Linecode.LC_MRT_TRF_12_2120A_1 nphases=1 basefreq=60 r1=15000 x1=0 units=km normamps=0
New Linecode.LC_MRT_TRF_12_2120A_2 nphases=2 basefreq=60 r1=15000 x1=0 units=km normamps=0
New Linecode.LC_MRT_TRF_12_2120A_3 nphases=3 basefreq=60 r1=15000 x1=0 units=km normamps=0
New Linecode.LC_MRT_TRF_12_2120A_4 nphases=4 basefreq=60 r1=15000 x1=0 units=km normamps=0
New Line.Resist_MTR_TRF_12_2120A phases=1 bus1=311901.2 bus2= MRT_311901TRF_12_2120A.2 linecode=LC_MRT_TRF_12_2120A_1 length=0.001 units=km
New Reactor.TRF_12_2120A_R phases=1 bus1=ET12_2120.4 R=15 X=0 basefreq=60
New Transformer.TRF_12_2122A phases=1 windings=3 buses=[MRT_295021TRF_12_2122A.1 ET12_2122.1.4 ET12_2122.4.2] conns=[Wye Wye Wye] kvs=[13.3367912182804 0.22 0.22] kvas=[10 10 10] %loadloss=1.95 %noloadloss=0.5
New Linecode.LC_MRT_TRF_12_2122A_1 nphases=1 basefreq=60 r1=15000 x1=0 units=km normamps=0
New Linecode.LC_MRT_TRF_12_2122A_2 nphases=2 basefreq=60 r1=15000 x1=0 units=km normamps=0
New Linecode.LC_MRT_TRF_12_2122A_3 nphases=3 basefreq=60 r1=15000 x1=0 units=km normamps=0
New Linecode.LC_MRT_TRF_12_2122A_4 nphases=4 basefreq=60 r1=15000 x1=0 units=km normamps=0
New Line.Resist_MTR_TRF_12_2122A phases=1 bus1=295021.1 bus2= MRT_295021TRF_12_2122A.1 linecode=LC_MRT_TRF_12_2122A_1 length=0.001 units=km
New Reactor.TRF_12_2122A_R phases=1 bus1=ET12_2122.4 R=15 X=0 basefreq=60
New Transformer.TRF_12_2133A phases=1 windings=3 buses=[MRT_11521TRF_12_2133A.3 ET12_2133.1.4 ET12_2133.4.2] conns=[Wye Wye Wye] kvs=[13.3367912182804 0.22 0.22] kvas=[15 15 15] %loadloss=1.766667 %noloadloss=0.433333
New Linecode.LC_MRT_TRF_12_2133A_1 nphases=1 basefreq=60 r1=15000 x1=0 units=km normamps=0
New Linecode.LC_MRT_TRF_12_2133A_2 nphases=2 basefreq=60 r1=15000 x1=0 units=km normamps=0
New Linecode.LC_MRT_TRF_12_2133A_3 nphases=3 basefreq=60 r1=15000 x1=0 units=km normamps=0
New Linecode.LC_MRT_TRF_12_2133A_4 nphases=4 basefreq=60 r1=15000 x1=0 units=km normamps=0
New Line.Resist_MTR_TRF_12_2133A phases=1 bus1=11521.3 bus2= MRT_11521TRF_12_2133A.3 linecode=LC_MRT_TRF_12_2133A_1 length=0.001 units=km
New Reactor.TRF_12_2133A_R phases=1 bus1=ET12_2133.4 R=15 X=0 basefreq=60
New Transformer.TRF_12_2134A phases=1 windings=3 buses=[MRT_629381TRF_12_2134A.1 ET12_2134.1.4 ET12_2134.4.2] conns=[Wye Wye Wye] kvs=[13.3367912182804 0.22 0.22] kvas=[10 10 10] %loadloss=1.95 %noloadloss=0.5
New Linecode.LC_MRT_TRF_12_2134A_1 nphases=1 basefreq=60 r1=15000 x1=0 units=km normamps=0
New Linecode.LC_MRT_TRF_12_2134A_2 nphases=2 basefreq=60 r1=15000 x1=0 units=km normamps=0
New Linecode.LC_MRT_TRF_12_2134A_3 nphases=3 basefreq=60 r1=15000 x1=0 units=km normamps=0
New Linecode.LC_MRT_TRF_12_2134A_4 nphases=4 basefreq=60 r1=15000 x1=0 units=km normamps=0
New Line.Resist_MTR_TRF_12_2134A phases=1 bus1=629381.1 bus2= MRT_629381TRF_12_2134A.1 linecode=LC_MRT_TRF_12_2134A_1 length=0.001 units=km
New Reactor.TRF_12_2134A_R phases=1 bus1=ET12_2134.4 R=15 X=0 basefreq=60
New Transformer.TRF_12_2135A phases=1 windings=3 buses=[MRT_41831TRF_12_2135A.1 ET12_2135.1.4 ET12_2135.4.2] conns=[Wye Wye Wye] kvs=[13.3367912182804 0.22 0.22] kvas=[5 5 5] %loadloss=2.1 %noloadloss=0.7
New Linecode.LC_MRT_TRF_12_2135A_1 nphases=1 basefreq=60 r1=15000 x1=0 units=km normamps=0
New Linecode.LC_MRT_TRF_12_2135A_2 nphases=2 basefreq=60 r1=15000 x1=0 units=km normamps=0
New Linecode.LC_MRT_TRF_12_2135A_3 nphases=3 basefreq=60 r1=15000 x1=0 units=km normamps=0
New Linecode.LC_MRT_TRF_12_2135A_4 nphases=4 basefreq=60 r1=15000 x1=0 units=km normamps=0
New Line.Resist_MTR_TRF_12_2135A phases=1 bus1=41831.1 bus2= MRT_41831TRF_12_2135A.1 linecode=LC_MRT_TRF_12_2135A_1 length=0.001 units=km
New Reactor.TRF_12_2135A_R phases=1 bus1=ET12_2135.4 R=15 X=0 basefreq=60
New Transformer.TRF_12_2138A phases=1 windings=3 buses=[MRT_311861TRF_12_2138A.3 ET12_2138.1.4 ET12_2138.4.2] conns=[Wye Wye Wye] kvs=[13.3367912182804 0.22 0.22] kvas=[15 15 15] %loadloss=1.766667 %noloadloss=0.433333
New Linecode.LC_MRT_TRF_12_2138A_1 nphases=1 basefreq=60 r1=15000 x1=0 units=km normamps=0
New Linecode.LC_MRT_TRF_12_2138A_2 nphases=2 basefreq=60 r1=15000 x1=0 units=km normamps=0
New Linecode.LC_MRT_TRF_12_2138A_3 nphases=3 basefreq=60 r1=15000 x1=0 units=km normamps=0
New Linecode.LC_MRT_TRF_12_2138A_4 nphases=4 basefreq=60 r1=15000 x1=0 units=km normamps=0
New Line.Resist_MTR_TRF_12_2138A phases=1 bus1=311861.3 bus2= MRT_311861TRF_12_2138A.3 linecode=LC_MRT_TRF_12_2138A_1 length=0.001 units=km
New Reactor.TRF_12_2138A_R phases=1 bus1=ET12_2138.4 R=15 X=0 basefreq=60
New Transformer.TRF_12_2142A phases=1 windings=3 buses=[MRT_57141TRF_12_2142A.3 ET12_2142.1.4 ET12_2142.4.2] conns=[Wye Wye Wye] kvs=[13.3367912182804 0.22 0.22] kvas=[25 25 25] %loadloss=1.56 %noloadloss=0.36
New Linecode.LC_MRT_TRF_12_2142A_1 nphases=1 basefreq=60 r1=15000 x1=0 units=km normamps=0
New Linecode.LC_MRT_TRF_12_2142A_2 nphases=2 basefreq=60 r1=15000 x1=0 units=km normamps=0
New Linecode.LC_MRT_TRF_12_2142A_3 nphases=3 basefreq=60 r1=15000 x1=0 units=km normamps=0
New Linecode.LC_MRT_TRF_12_2142A_4 nphases=4 basefreq=60 r1=15000 x1=0 units=km normamps=0
New Line.Resist_MTR_TRF_12_2142A phases=1 bus1=57141.3 bus2= MRT_57141TRF_12_2142A.3 linecode=LC_MRT_TRF_12_2142A_1 length=0.001 units=km
New Reactor.TRF_12_2142A_R phases=1 bus1=ET12_2142.4 R=15 X=0 basefreq=60
New Transformer.TRF_12_2194A phases=1 windings=3 buses=[MRT_311831TRF_12_2194A.1 ET12_2194.1.4 ET12_2194.4.2] conns=[Wye Wye Wye] kvs=[13.3367912182804 0.22 0.22] kvas=[5 5 5] %loadloss=2.1 %noloadloss=0.7
New Linecode.LC_MRT_TRF_12_2194A_1 nphases=1 basefreq=60 r1=15000 x1=0 units=km normamps=0
New Linecode.LC_MRT_TRF_12_2194A_2 nphases=2 basefreq=60 r1=15000 x1=0 units=km normamps=0
New Linecode.LC_MRT_TRF_12_2194A_3 nphases=3 basefreq=60 r1=15000 x1=0 units=km normamps=0
New Linecode.LC_MRT_TRF_12_2194A_4 nphases=4 basefreq=60 r1=15000 x1=0 units=km normamps=0
New Line.Resist_MTR_TRF_12_2194A phases=1 bus1=311831.1 bus2= MRT_311831TRF_12_2194A.1 linecode=LC_MRT_TRF_12_2194A_1 length=0.001 units=km
New Reactor.TRF_12_2194A_R phases=1 bus1=ET12_2194.4 R=15 X=0 basefreq=60
New Transformer.TRF_12_2284A phases=1 windings=3 buses=[MRT_31791TRF_12_2284A.3 ET12_2284.1.4 ET12_2284.4.2] conns=[Wye Wye Wye] kvs=[13.3367912182804 0.22 0.22] kvas=[15 15 15] %loadloss=1.766667 %noloadloss=0.433333
New Linecode.LC_MRT_TRF_12_2284A_1 nphases=1 basefreq=60 r1=15000 x1=0 units=km normamps=0
New Linecode.LC_MRT_TRF_12_2284A_2 nphases=2 basefreq=60 r1=15000 x1=0 units=km normamps=0
New Linecode.LC_MRT_TRF_12_2284A_3 nphases=3 basefreq=60 r1=15000 x1=0 units=km normamps=0
New Linecode.LC_MRT_TRF_12_2284A_4 nphases=4 basefreq=60 r1=15000 x1=0 units=km normamps=0
New Line.Resist_MTR_TRF_12_2284A phases=1 bus1=31791.3 bus2= MRT_31791TRF_12_2284A.3 linecode=LC_MRT_TRF_12_2284A_1 length=0.001 units=km
New Reactor.TRF_12_2284A_R phases=1 bus1=ET12_2284.4 R=15 X=0 basefreq=60
New Transformer.TRF_12_2331A phases=1 windings=3 buses=[MRT_24261TRF_12_2331A.2 ET12_2331.1.4 ET12_2331.4.2] conns=[Wye Wye Wye] kvs=[13.3367912182804 0.22 0.22] kvas=[15 15 15] %loadloss=1.766667 %noloadloss=0.433333
New Linecode.LC_MRT_TRF_12_2331A_1 nphases=1 basefreq=60 r1=15000 x1=0 units=km normamps=0
New Linecode.LC_MRT_TRF_12_2331A_2 nphases=2 basefreq=60 r1=15000 x1=0 units=km normamps=0
New Linecode.LC_MRT_TRF_12_2331A_3 nphases=3 basefreq=60 r1=15000 x1=0 units=km normamps=0
New Linecode.LC_MRT_TRF_12_2331A_4 nphases=4 basefreq=60 r1=15000 x1=0 units=km normamps=0
New Line.Resist_MTR_TRF_12_2331A phases=1 bus1=24261.2 bus2= MRT_24261TRF_12_2331A.2 linecode=LC_MRT_TRF_12_2331A_1 length=0.001 units=km
New Reactor.TRF_12_2331A_R phases=1 bus1=ET12_2331.4 R=15 X=0 basefreq=60
New Transformer.TRF_12_2334A phases=1 windings=3 buses=[MRT_370661TRF_12_2334A.1 ET12_2334.1.4 ET12_2334.4.2] conns=[Wye Wye Wye] kvs=[13.3367912182804 0.22 0.22] kvas=[5 5 5] %loadloss=2.1 %noloadloss=0.7
New Linecode.LC_MRT_TRF_12_2334A_1 nphases=1 basefreq=60 r1=15000 x1=0 units=km normamps=0
New Linecode.LC_MRT_TRF_12_2334A_2 nphases=2 basefreq=60 r1=15000 x1=0 units=km normamps=0
New Linecode.LC_MRT_TRF_12_2334A_3 nphases=3 basefreq=60 r1=15000 x1=0 units=km normamps=0
New Linecode.LC_MRT_TRF_12_2334A_4 nphases=4 basefreq=60 r1=15000 x1=0 units=km normamps=0
New Line.Resist_MTR_TRF_12_2334A phases=1 bus1=370661.1 bus2= MRT_370661TRF_12_2334A.1 linecode=LC_MRT_TRF_12_2334A_1 length=0.001 units=km
New Reactor.TRF_12_2334A_R phases=1 bus1=ET12_2334.4 R=15 X=0 basefreq=60
New Transformer.TRF_12_2342A phases=1 windings=3 buses=[MRT_45131TRF_12_2342A.2 ET12_2342.1.4 ET12_2342.4.2] conns=[Wye Wye Wye] kvs=[13.3367912182804 0.22 0.22] kvas=[15 15 15] %loadloss=1.766667 %noloadloss=0.433333
New Linecode.LC_MRT_TRF_12_2342A_1 nphases=1 basefreq=60 r1=15000 x1=0 units=km normamps=0
New Linecode.LC_MRT_TRF_12_2342A_2 nphases=2 basefreq=60 r1=15000 x1=0 units=km normamps=0
New Linecode.LC_MRT_TRF_12_2342A_3 nphases=3 basefreq=60 r1=15000 x1=0 units=km normamps=0
New Linecode.LC_MRT_TRF_12_2342A_4 nphases=4 basefreq=60 r1=15000 x1=0 units=km normamps=0
New Line.Resist_MTR_TRF_12_2342A phases=1 bus1=45131.2 bus2= MRT_45131TRF_12_2342A.2 linecode=LC_MRT_TRF_12_2342A_1 length=0.001 units=km
New Reactor.TRF_12_2342A_R phases=1 bus1=ET12_2342.4 R=15 X=0 basefreq=60
New Transformer.TRF_12_2343A phases=1 windings=3 buses=[MRT_47581TRF_12_2343A.1 ET12_2343.1.4 ET12_2343.4.2] conns=[Wye Wye Wye] kvs=[13.3367912182804 0.22 0.22] kvas=[15 15 15] %loadloss=1.766667 %noloadloss=0.433333
New Linecode.LC_MRT_TRF_12_2343A_1 nphases=1 basefreq=60 r1=15000 x1=0 units=km normamps=0
New Linecode.LC_MRT_TRF_12_2343A_2 nphases=2 basefreq=60 r1=15000 x1=0 units=km normamps=0
New Linecode.LC_MRT_TRF_12_2343A_3 nphases=3 basefreq=60 r1=15000 x1=0 units=km normamps=0
New Linecode.LC_MRT_TRF_12_2343A_4 nphases=4 basefreq=60 r1=15000 x1=0 units=km normamps=0
New Line.Resist_MTR_TRF_12_2343A phases=1 bus1=47581.1 bus2= MRT_47581TRF_12_2343A.1 linecode=LC_MRT_TRF_12_2343A_1 length=0.001 units=km
New Reactor.TRF_12_2343A_R phases=1 bus1=ET12_2343.4 R=15 X=0 basefreq=60
New Transformer.TRF_12_2375A phases=1 windings=3 buses=[MRT_74981TRF_12_2375A.2 ET12_2375.1.4 ET12_2375.4.2] conns=[Wye Wye Wye] kvs=[13.3367912182804 0.22 0.22] kvas=[25 25 25] %loadloss=1.56 %noloadloss=0.36
New Linecode.LC_MRT_TRF_12_2375A_1 nphases=1 basefreq=60 r1=15000 x1=0 units=km normamps=0
New Linecode.LC_MRT_TRF_12_2375A_2 nphases=2 basefreq=60 r1=15000 x1=0 units=km normamps=0
New Linecode.LC_MRT_TRF_12_2375A_3 nphases=3 basefreq=60 r1=15000 x1=0 units=km normamps=0
New Linecode.LC_MRT_TRF_12_2375A_4 nphases=4 basefreq=60 r1=15000 x1=0 units=km normamps=0
New Line.Resist_MTR_TRF_12_2375A phases=1 bus1=74981.2 bus2= MRT_74981TRF_12_2375A.2 linecode=LC_MRT_TRF_12_2375A_1 length=0.001 units=km
New Reactor.TRF_12_2375A_R phases=1 bus1=ET12_2375.4 R=15 X=0 basefreq=60
New Transformer.TRF_12_2376A phases=1 windings=3 buses=[MRT_21521TRF_12_2376A.1 ET12_2376.1.4 ET12_2376.4.2] conns=[Wye Wye Wye] kvs=[13.3367912182804 0.22 0.22] kvas=[10 10 10] %loadloss=1.95 %noloadloss=0.5
New Linecode.LC_MRT_TRF_12_2376A_1 nphases=1 basefreq=60 r1=15000 x1=0 units=km normamps=0
New Linecode.LC_MRT_TRF_12_2376A_2 nphases=2 basefreq=60 r1=15000 x1=0 units=km normamps=0
New Linecode.LC_MRT_TRF_12_2376A_3 nphases=3 basefreq=60 r1=15000 x1=0 units=km normamps=0
New Linecode.LC_MRT_TRF_12_2376A_4 nphases=4 basefreq=60 r1=15000 x1=0 units=km normamps=0
New Line.Resist_MTR_TRF_12_2376A phases=1 bus1=21521.1 bus2= MRT_21521TRF_12_2376A.1 linecode=LC_MRT_TRF_12_2376A_1 length=0.001 units=km
New Reactor.TRF_12_2376A_R phases=1 bus1=ET12_2376.4 R=15 X=0 basefreq=60
New Transformer.TRF_12_2387A phases=1 windings=3 buses=[MRT_47421TRF_12_2387A.1 ET12_2387.1.4 ET12_2387.4.2] conns=[Wye Wye Wye] kvs=[13.3367912182804 0.22 0.22] kvas=[10 10 10] %loadloss=1.95 %noloadloss=0.5
New Linecode.LC_MRT_TRF_12_2387A_1 nphases=1 basefreq=60 r1=15000 x1=0 units=km normamps=0
New Linecode.LC_MRT_TRF_12_2387A_2 nphases=2 basefreq=60 r1=15000 x1=0 units=km normamps=0
New Linecode.LC_MRT_TRF_12_2387A_3 nphases=3 basefreq=60 r1=15000 x1=0 units=km normamps=0
New Linecode.LC_MRT_TRF_12_2387A_4 nphases=4 basefreq=60 r1=15000 x1=0 units=km normamps=0
New Line.Resist_MTR_TRF_12_2387A phases=1 bus1=47421.1 bus2= MRT_47421TRF_12_2387A.1 linecode=LC_MRT_TRF_12_2387A_1 length=0.001 units=km
New Reactor.TRF_12_2387A_R phases=1 bus1=ET12_2387.4 R=15 X=0 basefreq=60