New Line.RBT_1214991 phases=2 bus1=BT24331.2.4 bus2=UC1214991.2.4 linecode=50_2 length=0.013 units=km
New Line.RBT_1215257 phases=2 bus1=BT56541.1.4 bus2=UC1215257.1.4 linecode=50_2 length=0.02 units=km
New Line.RBT_1215258 phases=2 bus1=BT386261.2.4 bus2=UC1215258.2.4 linecode=50_2 length=0.007 units=km
New Line.RBT_1215260 phases=2 bus1=BT56501.1.4 bus2=UC1215260.1.4 linecode=50_2 length=0.007 units=km
New Line.RBT_1215261 phases=3 bus1=BT24421.1.2.4 bus2=UC1215261.1.2.4 linecode=110_3 length=0.03 units=km
New Line.RBT_1215262 phases=2 bus1=BT24381.1.4 bus2=UC1215262.1.4 linecode=105_2 length=0.016 units=km
New Line.RBT_1215288 phases=2 bus1=BT386311.1.4 bus2=UC1215288.1.4 linecode=50_2 length=0.026 units=km
New Line.RBT_1215289 phases=2 bus1=BT24211.2.4 bus2=UC1215289.2.4 linecode=50_2 length=0.018 units=km
New Line.RBT_1229425 phases=2 bus1=BT24141.1.4 bus2=UC1229425.1.4 linecode=50_2 length=0.013 units=km
New Line.RBT_1215267 phases=3 bus1=BT24221.1.2.4 bus2=UC1215267.1.2.4 linecode=83_3 length=0.022 units=km
New Line.RBT_1215270 phases=3 bus1=BT24071.1.2.4 bus2=UC1215270.1.2.4 linecode=83_3 length=0.008 units=km
New Line.RBT_1216120 phases=2 bus1=BT42422.2.4 bus2=UC1216120.2.4 linecode=50_2 length=0.03 units=km
New Line.RBT_1237144 phases=2 bus1=BT24091.1.4 bus2=UC1237144.1.4 linecode=105_2 length=0.02 units=km
New Line.RBT_1238423 phases=2 bus1=BT24041.1.4 bus2=UC1238423.1.4 linecode=105_2 length=0.03 units=km
New Line.RBT_1215274 phases=2 bus1=BT42291.1.4 bus2=UC1215274.1.4 linecode=50_2 length=0.01 units=km
New Line.RBT_1215276 phases=2 bus1=BT23241.2.4 bus2=UC1215276.2.4 linecode=50_2 length=0.025 units=km
New Line.RBT_1215278 phases=3 bus1=BT42111.1.2.4 bus2=UC1215278.1.2.4 linecode=83_3 length=0.02 units=km
New Line.RBT_1222704 phases=2 bus1=BT42111.2.4 bus2=UC1222704.2.4 linecode=50_2 length=0.018 units=km
New Line.RBT_1232403 phases=2 bus1=BT42291.2.4 bus2=UC1232403.2.4 linecode=50_2 length=0.0239 units=km
New Line.RBT_1230363 phases=2 bus1=ET12_1017.2.4 bus2=UC1230363.2.4 linecode=108_2 length=0.02 units=km
New Line.RBT_1227341 phases=2 bus1=BT59541.1.4 bus2=UC1227341.1.4 linecode=50_2 length=0.03 units=km
New Line.RBT_1215250 phases=2 bus1=BT58851.1.4 bus2=UC1215250.1.4 linecode=108_2 length=0.03 units=km
New Line.RBT_1215281 phases=2 bus1=BT527441.1.4 bus2=UC1215281.1.4 linecode=50_2 length=0.018 units=km
New Line.RBT_1215282 phases=3 bus1=BT42221.1.2.4 bus2=UC1215282.1.2.4 linecode=83_3 length=0.016 units=km
New Line.RBT_1215284 phases=3 bus1=BT42261.1.2.4 bus2=UC1215284.1.2.4 linecode=83_3 length=0.016 units=km
New Line.RBT_1215311 phases=2 bus1=BT42231.1.4 bus2=UC1215311.1.4 linecode=50_2 length=0.02 units=km
New Line.RBT_1216170 phases=2 bus1=BT42241.2.4 bus2=UC1216170.2.4 linecode=50_2 length=0.023 units=km
New Line.RBT_1225161 phases=2 bus1=BT301751.1.4 bus2=UC1225161.1.4 linecode=50_2 length=0.017 units=km
New Line.RBT_1232605 phases=2 bus1=ET12_1122.2.4 bus2=UC1232605.2.4 linecode=50_2 length=0.03 units=km
New Line.RBT_1215109 phases=2 bus1=BT57791.2.4 bus2=UC1215109.2.4 linecode=50_2 length=0.013 units=km
New Line.RBT_1215110 phases=2 bus1=BT57781.2.4 bus2=UC1215110.2.4 linecode=108_2 length=0.012 units=km
New Line.RBT_1238603 phases=2 bus1=BT819031.2.4 bus2=UC1238603.2.4 linecode=105_2 length=0.03 units=km
New Line.RBT_1238610 phases=2 bus1=BT819031.2.4 bus2=UC1238610.2.4 linecode=105_2 length=0.03 units=km
New Line.RBT_1238611 phases=2 bus1=BT819031.2.4 bus2=UC1238611.2.4 linecode=105_2 length=0.03 units=km
New Line.RBT_1238618 phases=2 bus1=BT57801.2.4 bus2=UC1238618.2.4 linecode=105_2 length=0.02 units=km
New Line.RBT_1215116 phases=2 bus1=BT61651.1.4 bus2=UC1215116.1.4 linecode=50_2 length=0.028 units=km
New Line.RBT_1215307 phases=2 bus1=BT61671.1.4 bus2=UC1215307.1.4 linecode=50_2 length=0.014 units=km
New Line.RBT_1227329 phases=3 bus1=BT61671.1.2.4 bus2=UC1227329.1.2.4 linecode=83_3 length=0.029 units=km
New Line.RBT_1225153 phases=2 bus1=BT330481.2.4 bus2=UC1225153.2.4 linecode=105_2 length=0.015 units=km
New Line.RBT_1228764 phases=2 bus1=BT61581.2.4 bus2=UC1228764.2.4 linecode=50_2 length=0.02288 units=km
New Line.RBT_1215114 phases=2 bus1=BT61591.2.4 bus2=UC1215114.2.4 linecode=50_2 length=0.003 units=km
New Line.RBT_1214867 phases=2 bus1=BT69541.2.4 bus2=UC1214867.2.4 linecode=50_2 length=0.01 units=km
New Line.RBT_1215120 phases=3 bus1=BT311871.1.2.4 bus2=UC1215120.1.2.4 linecode=83_3 length=0.006 units=km
New Line.RBT_1215123 phases=2 bus1=BT3881.2.4 bus2=UC1215123.2.4 linecode=50_2 length=0.03 units=km
New Line.RBT_1215203 phases=2 bus1=BT55211.1.4 bus2=UC1215203.1.4 linecode=50_2 length=0.011 units=km
New Line.RBT_1225638 phases=2 bus1=BT624791.2.4 bus2=UC1225638.2.4 linecode=105_2 length=0.014 units=km
New Line.RBT_1238430 phases=2 bus1=BT3881.2.4 bus2=UC1238430.2.4 linecode=50_2 length=0.025 units=km
New Line.RBT_1223010 phases=2 bus1=BT63941.1.4 bus2=UC1223010.1.4 linecode=50_2 length=0.011 units=km
New Line.RBT_1232602 phases=2 bus1=BT63941.1.4 bus2=UC1232602.1.4 linecode=50_2 length=0.02 units=km
New Line.RBT_1233054 phases=2 bus1=BT63901.2.4 bus2=UC1233054.2.4 linecode=50_2 length=0.01508 units=km
New Line.RBT_1233678 phases=2 bus1=ET12_1126.2.4 bus2=UC1233678.2.4 linecode=105_2 length=0.014 units=km
New Line.RBT_1216103 phases=2 bus1=ET12_1126.2.4 bus2=UC1216103.2.4 linecode=108_2 length=0.014 units=km
New Line.RBT_1214905 phases=2 bus1=BT45881.1.4 bus2=UC1214905.1.4 linecode=108_2 length=0.023 units=km
New Line.RBT_1225163 phases=2 bus1=BT301741.2.4 bus2=UC1225163.2.4 linecode=50_2 length=0.016 units=km
New Line.RBT_1222721 phases=2 bus1=BT64121.1.4 bus2=UC1222721.1.4 linecode=50_2 length=0.028 units=km
New Line.RBT_1214924 phases=2 bus1=BT64081.2.4 bus2=UC1214924.2.4 linecode=50_2 length=0.03 units=km
New Line.RBT_1215126 phases=2 bus1=BT64091.1.4 bus2=UC1215126.1.4 linecode=50_2 length=0.027 units=km
New Line.RBT_1237703 phases=2 bus1=BT64091.1.4 bus2=UC1237703.1.4 linecode=50_2 length=0.025 units=km
New Line.RBT_1214917 phases=2 bus1=ET12_1135.1.4 bus2=UC1214917.1.4 linecode=50_2 length=0.03 units=km
New Line.RBT_1216104 phases=2 bus1=BT14841.2.4 bus2=UC1216104.2.4 linecode=50_2 length=0.009 units=km
New Line.RBT_1215309 phases=2 bus1=BT14871.1.4 bus2=UC1215309.1.4 linecode=50_2 length=0.023 units=km
New Line.RBT_1220359 phases=2 bus1=BT14841.2.4 bus2=UC1220359.2.4 linecode=108_2 length=0.03 units=km
New Line.RBT_1228770 phases=2 bus1=BT14851.1.4 bus2=UC1228770.1.4 linecode=50_2 length=0.029 units=km
New Line.RBT_1214983 phases=2 bus1=BT45161.1.4 bus2=UC1214983.1.4 linecode=50_2 length=0.027 units=km
New Line.RBT_1215059 phases=2 bus1=ET12_1427.2.4 bus2=UC1215059.2.4 linecode=50_2 length=0.02 units=km
New Line.RBT_1216101 phases=2 bus1=BT2551.1.4 bus2=UC1216101.1.4 linecode=50_2 length=0.02475 units=km
New Line.RBT_1226677 phases=2 bus1=ET12_1427.1.4 bus2=UC1226677.1.4 linecode=50_2 length=0.019 units=km
New Line.RBT_1225637 phases=2 bus1=BT295691.1.4 bus2=UC1225637.1.4 linecode=50_2 length=0.004 units=km
New Line.RBT_1226686 phases=2 bus1=BT583681.2.4 bus2=UC1226686.2.4 linecode=50_2 length=0.008 units=km
New Line.RBT_1226477 phases=2 bus1=BT310931.1.4 bus2=UC1226477.1.4 linecode=50_2 length=0.01976 units=km
New Line.RBT_1225632 phases=2 bus1=BT310921.2.4 bus2=UC1225632.2.4 linecode=105_2 length=0.018 units=km
New Line.RBT_1225634 phases=2 bus1=BT342401.1.4 bus2=UC1225634.1.4 linecode=50_2 length=0.006 units=km
New Line.RBT_1228767 phases=2 bus1=BT583681.1.4 bus2=UC1228767.1.4 linecode=105_2 length=0.026 units=km
New Line.RBT_1228752 phases=2 bus1=BT310931.3.4 bus2=UC1228752.3.4 linecode=50_2 length=0.008 units=km
New Line.RBT_1226701 phases=2 bus1=BT583681.1.4 bus2=UC1226701.1.4 linecode=50_2 length=0.026 units=km
New Line.RBT_1227340 phases=2 bus1=BT583681.2.4 bus2=UC1227340.2.4 linecode=105_2 length=0.01 units=km
New Line.RBT_1227322 phases=2 bus1=BT45901.2.4 bus2=UC1227322.2.4 linecode=105_2 length=0.015 units=km
New Line.RBT_1227324 phases=2 bus1=BT342291.1.4 bus2=UC1227324.1.4 linecode=50_2 length=0.001 units=km
New Line.RBT_1220361 phases=2 bus1=BT342421.3.4 bus2=UC1220361.3.4 linecode=50_2 length=0.007 units=km
New Line.RBT_1220362 phases=2 bus1=BT342421.3.4 bus2=UC1220362.3.4 linecode=50_2 length=0.007 units=km
New Line.RBT_1220357 phases=2 bus1=BT342401.3.4 bus2=UC1220357.3.4 linecode=50_2 length=0.016 units=km
New Line.RBT_1220367 phases=2 bus1=ET12_1698.3.4 bus2=UC1220367.3.4 linecode=108_2 length=0.01 units=km
New Line.RBT_1220370 phases=2 bus1=BT342371.1.4 bus2=UC1220370.1.4 linecode=50_2 length=0.015 units=km
New Line.RBT_1220372 phases=2 bus1=BT342401.2.4 bus2=UC1220372.2.4 linecode=105_2 length=0.004 units=km
New Line.RBT_1216186 phases=2 bus1=BT342391.3.4 bus2=UC1216186.3.4 linecode=105_2 length=0.016 units=km
New Line.RBT_1216187 phases=2 bus1=BT342381.2.4 bus2=UC1216187.2.4 linecode=50_2 length=0.013 units=km
New Line.RBT_1216188 phases=2 bus1=BT342421.2.4 bus2=UC1216188.2.4 linecode=50_2 length=0.007 units=km
New Line.RBT_1216189 phases=2 bus1=BT342401.3.4 bus2=UC1216189.3.4 linecode=108_2 length=0.018 units=km
New Line.RBT_1216191 phases=2 bus1=BT295691.1.4 bus2=UC1216191.1.4 linecode=50_2 length=0.006 units=km
New Line.RBT_1216192 phases=2 bus1=BT295691.2.4 bus2=UC1216192.2.4 linecode=50_2 length=0.005 units=km
New Line.RBT_1216193 phases=2 bus1=BT45911.3.4 bus2=UC1216193.3.4 linecode=50_2 length=0.011 units=km
New Line.RBT_1216194 phases=2 bus1=BT45911.2.4 bus2=UC1216194.2.4 linecode=50_2 length=0.014 units=km
New Line.RBT_1216195 phases=2 bus1=BT342381.2.4 bus2=UC1216195.2.4 linecode=50_2 length=0.014 units=km
New Line.RBT_1216199 phases=2 bus1=BT342411.2.4 bus2=UC1216199.2.4 linecode=50_2 length=0.007 units=km
New Line.RBT_1216200 phases=2 bus1=BT342411.3.4 bus2=UC1216200.3.4 linecode=50_2 length=0.016 units=km
New Line.RBT_1222701 phases=2 bus1=BT45921.1.4 bus2=UC1222701.1.4 linecode=50_2 length=0.011 units=km
New Line.RBT_1224638 phases=2 bus1=BT45921.3.4 bus2=UC1224638.3.4 linecode=50_2 length=0.006 units=km
New Line.RBT_1224030 phases=2 bus1=BT310931.1.4 bus2=UC1224030.1.4 linecode=50_2 length=0.016 units=km
New Line.RBT_1224031 phases=2 bus1=BT342331.2.4 bus2=UC1224031.2.4 linecode=50_2 length=0.019 units=km
New Line.RBT_1224036 phases=2 bus1=BT45931.1.4 bus2=UC1224036.1.4 linecode=50_2 length=0.00793 units=km
New Line.RBT_1224040 phases=2 bus1=BT342431.2.4 bus2=UC1224040.2.4 linecode=50_2 length=0.006 units=km
New Line.RBT_1230361 phases=2 bus1=BT583681.2.4 bus2=UC1230361.2.4 linecode=108_2 length=0.02 units=km
New Line.RBT_1230369 phases=2 bus1=BT635451.2.4 bus2=UC1230369.2.4 linecode=50_2 length=0.011 units=km
New Line.RBT_1230367 phases=2 bus1=BT342291.1.4 bus2=UC1230367.1.4 linecode=105_2 length=0.002 units=km
New Line.RBT_1231389 phases=2 bus1=BT754761.1.4 bus2=UC1231389.1.4 linecode=50_2 length=0.00959 units=km
New Line.RBT_1231390 phases=2 bus1=BT310941.1.4 bus2=UC1231390.1.4 linecode=105_2 length=0.009 units=km
New Line.RBT_1231392 phases=2 bus1=BT671321.1.4 bus2=UC1231392.1.4 linecode=50_2 length=0.00933 units=km
New Line.RBT_1233676 phases=2 bus1=BT342301.3.4 bus2=UC1233676.3.4 linecode=50_2 length=0.00832 units=km
New Line.RBT_1231386 phases=2 bus1=BT754761.1.4 bus2=UC1231386.1.4 linecode=105_2 length=0.015 units=km
New Line.RBT_1235545 phases=2 bus1=BT583681.1.4 bus2=UC1235545.1.4 linecode=105_2 length=0.01 units=km
New Line.RBT_1236481 phases=2 bus1=BT342361.2.4 bus2=UC1236481.2.4 linecode=105_2 length=0.007 units=km
New Line.RBT_1236781 phases=2 bus1=BT635451.2.4 bus2=UC1236781.2.4 linecode=105_2 length=0.012 units=km
New Line.RBT_1216116 phases=2 bus1=BT342342.2.4 bus2=UC1216116.2.4 linecode=50_2 length=0.004 units=km
New Line.RBT_1216124 phases=2 bus1=BT342431.1.4 bus2=UC1216124.1.4 linecode=50_2 length=0.01617 units=km
New Line.RBT_1215304 phases=2 bus1=BT635451.1.4 bus2=UC1215304.1.4 linecode=50_2 length=0.01983 units=km
New Line.RBT_1216179 phases=2 bus1=BT342411.3.4 bus2=UC1216179.3.4 linecode=50_2 length=0.018 units=km
New Line.RBT_1216141 phases=2 bus1=BT342411.1.4 bus2=UC1216141.1.4 linecode=50_2 length=0.006 units=km
New Line.RBT_1216148 phases=2 bus1=BT342361.3.4 bus2=UC1216148.3.4 linecode=50_2 length=0.014 units=km
New Line.RBT_1216150 phases=2 bus1=BT342371.2.4 bus2=UC1216150.2.4 linecode=50_2 length=0.006 units=km
New Line.RBT_1216151 phases=2 bus1=BT342371.1.4 bus2=UC1216151.1.4 linecode=108_2 length=0.009 units=km
New Line.RBT_1216152 phases=2 bus1=BT342381.3.4 bus2=UC1216152.3.4 linecode=50_2 length=0.004 units=km
New Line.RBT_1216153 phases=2 bus1=BT342381.1.4 bus2=UC1216153.1.4 linecode=50_2 length=0.004 units=km
New Line.RBT_1216154 phases=2 bus1=BT342391.2.4 bus2=UC1216154.2.4 linecode=50_2 length=0.013 units=km
New Line.RBT_1216155 phases=2 bus1=BT342371.1.4 bus2=UC1216155.1.4 linecode=50_2 length=0.016 units=km
New Line.RBT_1216156 phases=2 bus1=BT342361.2.4 bus2=UC1216156.2.4 linecode=50_2 length=0.018 units=km
New Line.RBT_1216157 phases=4 bus1=BT342361.1.2.3.4 bus2=UC1216157.1.2.3.4 linecode=51_4 length=0.01771 units=km
New Line.RBT_1215102 phases=2 bus1=BT310921.1.4 bus2=UC1215102.1.4 linecode=50_2 length=0.00786 units=km
New Line.RBT_1215104 phases=4 bus1=BT342301.1.2.3.4 bus2=UC1215104.1.2.3.4 linecode=51_4 length=0.011 units=km
New Line.RBT_1215105 phases=2 bus1=BT342301.3.4 bus2=UC1215105.3.4 linecode=50_2 length=0.022 units=km
New Line.RBT_1214906 phases=2 bus1=BT342291.2.4 bus2=UC1214906.2.4 linecode=50_2 length=0.014 units=km
New Line.RBT_1205005 phases=4 bus1=BT45901.1.2.3.4 bus2=UC1205005.1.2.3.4 linecode=51_4 length=0.007 units=km
New Line.RBT_1205997 phases=2 bus1=BT342421.2.4 bus2=UC1205997.2.4 linecode=108_2 length=0.014 units=km
New Line.RBT_1237395 phases=2 bus1=BT45931.2.4 bus2=UC1237395.2.4 linecode=108_2 length=0.003 units=km
New Line.RBT_1237707 phases=2 bus1=BT45931.1.4 bus2=UC1237707.1.4 linecode=105_2 length=0.03 units=km
New Line.RBT_1237783 phases=2 bus1=BT310941.2.4 bus2=UC1237783.2.4 linecode=105_2 length=0.024 units=km
New Line.RBT_1236932 phases=2 bus1=BT671311.1.4 bus2=UC1236932.1.4 linecode=105_2 length=0.025 units=km
New Line.RBT_1238429 phases=2 bus1=BT342391.2.4 bus2=UC1238429.2.4 linecode=50_2 length=0.03 units=km
New Line.RBT_1238421 phases=2 bus1=BT342331.1.4 bus2=UC1238421.1.4 linecode=50_2 length=0.03 units=km
New Line.RBT_1238619 phases=2 bus1=BT310941.1.4 bus2=UC1238619.1.4 linecode=105_2 length=0.03 units=km
New Line.RBT_1238607 phases=2 bus1=BT45921.3.4 bus2=UC1238607.3.4 linecode=105_2 length=0.005 units=km
New Line.RBT_1215159 phases=2 bus1=BT67161.2.4 bus2=UC1215159.2.4 linecode=50_2 length=0.025 units=km
New Line.RBT_1215160 phases=2 bus1=BT67171.1.4 bus2=UC1215160.1.4 linecode=50_2 length=0.022 units=km
New Line.RBT_1216108 phases=2 bus1=BT8121.2.4 bus2=UC1216108.2.4 linecode=50_2 length=0.019 units=km
New Line.RBT_1215130 phases=2 bus1=BT8091.1.4 bus2=UC1215130.1.4 linecode=50_2 length=0.022 units=km
New Line.RBT_1215132 phases=2 bus1=ET12_1792.2.4 bus2=UC1215132.2.4 linecode=50_2 length=0.009 units=km
New Line.RBT_1236784 phases=2 bus1=ET12_1792.1.4 bus2=UC1236784.1.4 linecode=105_2 length=0.03 units=km
New Line.RBT_1230365 phases=2 bus1=BT8101.1.4 bus2=UC1230365.1.4 linecode=50_2 length=0.01578 units=km
New Line.RBT_1225154 phases=2 bus1=BT330671.2.4 bus2=UC1225154.2.4 linecode=50_2 length=0.013 units=km
New Line.RBT_1224048 phases=2 bus1=BT330711.1.4 bus2=UC1224048.1.4 linecode=50_2 length=0.016 units=km
New Line.RBT_1224049 phases=2 bus1=BT330701.2.4 bus2=UC1224049.2.4 linecode=50_2 length=0.019 units=km
New Line.RBT_1225165 phases=2 bus1=BT62561.1.4 bus2=UC1225165.1.4 linecode=50_2 length=0.011 units=km
New Line.RBT_1226473 phases=2 bus1=BT8101.1.4 bus2=UC1226473.1.4 linecode=50_2 length=0.022 units=km
New Line.RBT_1226673 phases=2 bus1=BT8121.1.4 bus2=UC1226673.1.4 linecode=50_2 length=0.01249 units=km
New Line.RBT_1231393 phases=2 bus1=ET12_1879.2.4 bus2=UC1231393.2.4 linecode=50_2 length=0.02778 units=km
New Line.RBT_1232408 phases=2 bus1=ET12_1879.1.4 bus2=UC1232408.1.4 linecode=50_2 length=0.03 units=km
New Line.RBT_1215277 phases=2 bus1=ET12_1879.1.4 bus2=UC1215277.1.4 linecode=50_2 length=0.02088 units=km
New Line.RBT_1215144 phases=2 bus1=BT1311.2.4 bus2=UC1215144.2.4 linecode=50_2 length=0.013 units=km
New Line.RBT_1215145 phases=2 bus1=BT542.2.4 bus2=UC1215145.2.4 linecode=50_2 length=0.02753 units=km
New Line.RBT_1214792 phases=2 bus1=BT1321.1.4 bus2=UC1214792.1.4 linecode=50_2 length=0.012 units=km
New Line.RBT_1229423 phases=4 bus1=BT1321.1.2.3.4 bus2=UC1229423.1.2.3.4 linecode=51_4 length=0.023 units=km
New Line.RBT_1216122 phases=2 bus1=ET12_2095.1.4 bus2=UC1216122.1.4 linecode=50_2 length=0.012 units=km
New Line.RBT_1216110 phases=2 bus1=BT310951.2.4 bus2=UC1216110.2.4 linecode=105_2 length=0.01 units=km
New Line.RBT_1216112 phases=4 bus1=BT310961.1.2.3.4 bus2=UC1216112.1.2.3.4 linecode=51_4 length=0.013 units=km
New Line.RBT_1214901 phases=2 bus1=BT326301.1.4 bus2=UC1214901.1.4 linecode=50_2 length=0.004 units=km
New Line.RBT_1214902 phases=2 bus1=ET12_2110.2.4 bus2=UC1214902.2.4 linecode=108_2 length=0.01385 units=km
New Line.RBT_1214903 phases=2 bus1=BT310951.1.4 bus2=UC1214903.1.4 linecode=50_2 length=0.011 units=km
New Line.RBT_1215101 phases=2 bus1=BT326301.2.4 bus2=UC1215101.2.4 linecode=108_2 length=0.028 units=km
New Line.RBT_1233891 phases=2 bus1=BT310961.2.4 bus2=UC1233891.2.4 linecode=105_2 length=0.006 units=km
New Line.RBT_1226683 phases=2 bus1=BT310951.1.4 bus2=UC1226683.1.4 linecode=108_2 length=0.01552 units=km
New Line.RBT_1226702 phases=2 bus1=BT310951.2.4 bus2=UC1226702.2.4 linecode=50_2 length=0.016 units=km
New Line.RBT_1216125 phases=2 bus1=BT164171.1.4 bus2=UC1216125.1.4 linecode=50_2 length=0.012 units=km
New Line.RBT_1216126 phases=2 bus1=BT311961.1.4 bus2=UC1216126.1.4 linecode=50_2 length=0.012 units=km
New Line.RBT_1216134 phases=2 bus1=BT311951.2.4 bus2=UC1216134.2.4 linecode=105_2 length=0.019 units=km
New Line.RBT_1227338 phases=2 bus1=BT635841.1.4 bus2=UC1227338.1.4 linecode=50_2 length=0.009 units=km
New Line.RBT_1228759 phases=2 bus1=BT649051.2.4 bus2=UC1228759.2.4 linecode=50_2 length=0.02855 units=km
New Line.RBT_1236485 phases=2 bus1=BT295031.2.4 bus2=UC1236485.2.4 linecode=105_2 length=0.01 units=km
New Line.RBT_1216137 phases=2 bus1=BT328821.1.4 bus2=UC1216137.1.4 linecode=105_2 length=0.009 units=km
New Line.RBT_1216171 phases=2 bus1=BT328841.2.4 bus2=UC1216171.2.4 linecode=105_2 length=0.015 units=km
New Line.RBT_1215138 phases=2 bus1=BT343581.1.4 bus2=UC1215138.1.4 linecode=50_2 length=0.021 units=km
New Line.RBT_1215005 phases=2 bus1=BT343691.1.4 bus2=UC1215005.1.4 linecode=50_2 length=0.025 units=km
New Line.RBT_1216128 phases=2 bus1=ET12_2134.2.4 bus2=UC1216128.2.4 linecode=50_2 length=0.01434 units=km
New Line.RBT_1216129 phases=2 bus1=BT343591.1.4 bus2=UC1216129.1.4 linecode=50_2 length=0.03 units=km
New Line.RBT_1236239 phases=2 bus1=BT343591.1.4 bus2=UC1236239.1.4 linecode=50_2 length=0.03 units=km
New Line.RBT_1230752 phases=2 bus1=ET12_2134.1.4 bus2=UC1230752.1.4 linecode=50_2 length=0.03 units=km
New Line.RBT_1237391 phases=2 bus1=BT320691.1.4 bus2=UC1237391.1.4 linecode=105_2 length=0.01 units=km
New Line.RBT_1216107 phases=2 bus1=BT313601.1.4 bus2=UC1216107.1.4 linecode=50_2 length=0.01217 units=km
New Line.RBT_1216146 phases=2 bus1=BT313591.2.4 bus2=UC1216146.2.4 linecode=50_2 length=0.01793 units=km
New Line.RBT_1216142 phases=2 bus1=BT313601.1.4 bus2=UC1216142.1.4 linecode=105_2 length=0.01 units=km
New Line.RBT_1216147 phases=2 bus1=ET12_2138.1.4 bus2=UC1216147.1.4 linecode=50_2 length=0.0043 units=km
New Line.RBT_1215295 phases=2 bus1=BT57191.1.4 bus2=UC1215295.1.4 linecode=50_2 length=0.03 units=km
New Line.RBT_1215296 phases=3 bus1=BT57171.1.2.4 bus2=UC1215296.1.2.4 linecode=83_3 length=0.02 units=km
New Line.RBT_1233060 phases=2 bus1=BT57191.1.4 bus2=UC1233060.1.4 linecode=50_2 length=0.02239 units=km
New Line.RBT_1228758 phases=2 bus1=BT57171.2.4 bus2=UC1228758.2.4 linecode=50_2 length=0.01 units=km
New Line.RBT_1216165 phases=2 bus1=BT304811.1.4 bus2=UC1216165.1.4 linecode=50_2 length=0.02601 units=km
New Line.RBT_1216143 phases=2 bus1=BT311851.1.4 bus2=UC1216143.1.4 linecode=50_2 length=0.018 units=km
New Line.RBT_1215240 phases=2 bus1=BT22081.2.4 bus2=UC1215240.2.4 linecode=50_2 length=0.016 units=km
New Line.RBT_1237710 phases=2 bus1=ET12_2194.1.4 bus2=UC1237710.1.4 linecode=105_2 length=0.03 units=km
New Line.RBT_1214976 phases=2 bus1=ET12_2284.1.4 bus2=UC1214976.1.4 linecode=108_2 length=0.03 units=km
New Line.RBT_1214977 phases=2 bus1=ET12_2284.1.4 bus2=UC1214977.1.4 linecode=50_2 length=0.01448 units=km
New Line.RBT_1226688 phases=2 bus1=BT583641.2.4 bus2=UC1226688.2.4 linecode=50_2 length=0.017 units=km
New Line.RBT_1235366 phases=2 bus1=BT24301.2.4 bus2=UC1235366.2.4 linecode=50_2 length=0.015 units=km
New Line.RBT_1235588 phases=2 bus1=BT379991.1.4 bus2=UC1235588.1.4 linecode=108_2 length=0.025 units=km
New Line.RBT_1215266 phases=2 bus1=BT24251.1.4 bus2=UC1215266.1.4 linecode=50_2 length=0.018 units=km
New Line.RBT_1216167 phases=2 bus1=BT380001.1.4 bus2=UC1216167.1.4 linecode=50_2 length=0.014 units=km
New Line.RBT_1236931 phases=2 bus1=BT379991.2.4 bus2=UC1236931.2.4 linecode=105_2 length=0.028 units=km
New Line.RBT_1227330 phases=2 bus1=BT21601.1.4 bus2=UC1227330.1.4 linecode=105_2 length=0.028 units=km
New Line.RBT_1216168 phases=3 bus1=BT304841.1.2.4 bus2=UC1216168.1.2.4 linecode=83_3 length=0.028 units=km
New Line.RBT_1215198 phases=2 bus1=BT45141.2.4 bus2=UC1215198.2.4 linecode=105_2 length=0.013 units=km
New Line.RBT_1215137 phases=2 bus1=BT370621.1.4 bus2=UC1215137.1.4 linecode=50_2 length=0.01 units=km
New Line.RBT_1215207 phases=2 bus1=BT47591.2.4 bus2=UC1215207.2.4 linecode=50_2 length=0.028 units=km
New Line.RBT_1216169 phases=2 bus1=BT370641.2.4 bus2=UC1216169.2.4 linecode=50_2 length=0.01 units=km
New Line.RBT_1226483 phases=2 bus1=BT47591.2.4 bus2=UC1226483.2.4 linecode=50_2 length=0.022 units=km
New Line.RBT_1216177 phases=2 bus1=BT74991.2.4 bus2=UC1216177.2.4 linecode=50_2 length=0.014 units=km
New Line.RBT_1215054 phases=2 bus1=ET12_2375.1.4 bus2=UC1215054.1.4 linecode=50_2 length=0.007 units=km
New Line.RBT_1215244 phases=3 bus1=ET12_2376.1.2.4 bus2=UC1215244.1.2.4 linecode=83_3 length=0.0226 units=km
New Line.RBT_1215208 phases=2 bus1=ET12_2387.2.4 bus2=UC1215208.2.4 linecode=50_2 length=0.018 units=km
New Line.RBT_1216136 phases=2 bus1=BT311971.1.4 bus2=UC1216136.1.4 linecode=50_2 length=0.007 units=km
New Line.RBT_1215119 phases=3 bus1=BT63191.1.2.4 bus2=UC1215119.1.2.4 linecode=83_3 length=0.015 units=km
New Line.RBT_1216185 phases=2 bus1=BT62631.1.4 bus2=UC1216185.1.4 linecode=50_2 length=0.016 units=km
New Line.RBT_1234167 phases=2 bus1=BT62631.1.4 bus2=UC1234167.1.4 linecode=50_2 length=0.01764 units=km
New Line.RBT_1215199 phases=2 bus1=BT45321.2.4 bus2=UC1215199.2.4 linecode=50_2 length=0.008 units=km
New Line.RBT_1215200 phases=3 bus1=ET12_2463.1.2.4 bus2=UC1215200.1.2.4 linecode=83_3 length=0.021 units=km
New Line.RBT_1215106 phases=2 bus1=BT361741.1.4 bus2=UC1215106.1.4 linecode=50_2 length=0.02 units=km
New Line.RBT_1214907 phases=2 bus1=BT45861.2.4 bus2=UC1214907.2.4 linecode=50_2 length=0.014 units=km
New Line.RBT_1215225 phases=2 bus1=ET12_2513.1.4 bus2=UC1215225.1.4 linecode=105_2 length=0.017 units=km
New Line.RBT_1220354 phases=2 bus1=BT325821.1.4 bus2=UC1220354.1.4 linecode=50_2 length=0.024 units=km
New Line.RBT_1221996 phases=2 bus1=BT372551.1.4 bus2=UC1221996.1.4 linecode=105_2 length=0.005 units=km
New Line.RBT_1220371 phases=2 bus1=ET12_2601.2.4 bus2=UC1220371.2.4 linecode=50_2 length=0.01953 units=km
New Line.RBT_1232610 phases=2 bus1=BT63091.1.4 bus2=UC1232610.1.4 linecode=50_2 length=0.01011 units=km
New Line.RBT_1215239 phases=2 bus1=BT63091.1.4 bus2=UC1215239.1.4 linecode=50_2 length=0.026 units=km
New Line.RBT_1215242 phases=3 bus1=BT59711.1.2.4 bus2=UC1215242.1.2.4 linecode=83_3 length=0.03 units=km
New Line.RBT_1215243 phases=3 bus1=BT59641.1.2.4 bus2=UC1215243.1.2.4 linecode=83_3 length=0.021 units=km
New Line.RBT_1232410 phases=2 bus1=BT59641.2.4 bus2=UC1232410.2.4 linecode=50_2 length=0.01845 units=km
New Line.RBT_1233059 phases=2 bus1=BT59711.2.4 bus2=UC1233059.2.4 linecode=50_2 length=0.02291 units=km
New Line.RBT_1232601 phases=2 bus1=BT57241.2.4 bus2=UC1232601.2.4 linecode=50_2 length=0.00593 units=km
New Line.RBT_1216196 phases=3 bus1=BT49071.1.2.4 bus2=UC1216196.1.2.4 linecode=83_3 length=0.017 units=km
New Line.RBT_1227348 phases=2 bus1=ET12_2747.1.4 bus2=UC1227348.1.4 linecode=50_2 length=0.03 units=km
New Line.RBT_1215174 phases=3 bus1=BT57241.1.2.4 bus2=UC1215174.1.2.4 linecode=83_3 length=0.03 units=km
New Line.RBT_1215139 phases=3 bus1=ET12_2747.1.2.4 bus2=UC1215139.1.2.4 linecode=83_3 length=0.022 units=km
New Line.RBT_1215140 phases=2 bus1=BT49071.2.4 bus2=UC1215140.2.4 linecode=50_2 length=0.03 units=km
New Line.RBT_1215141 phases=2 bus1=ET12_2747.1.4 bus2=UC1215141.1.4 linecode=50_2 length=0.03 units=km
New Line.RBT_1215142 phases=3 bus1=ET12_2747.1.2.4 bus2=UC1215142.1.2.4 linecode=83_3 length=0.013 units=km
New Line.RBT_1215162 phases=2 bus1=BT45201.1.4 bus2=UC1215162.1.4 linecode=50_2 length=0.018 units=km
New Line.RBT_1221169 phases=2 bus1=BT366741.2.4 bus2=UC1221169.2.4 linecode=50_2 length=0.03 units=km
New Line.RBT_1232017 phases=2 bus1=BT45201.1.4 bus2=UC1232017.1.4 linecode=50_2 length=0.02864 units=km
New Line.RBT_1215234 phases=2 bus1=BT22121.1.4 bus2=UC1215234.1.4 linecode=50_2 length=0.029 units=km
New Line.RBT_1215235 phases=2 bus1=BT22101.2.4 bus2=UC1215235.2.4 linecode=50_2 length=0.01 units=km
New Line.RBT_1215201 phases=2 bus1=ET12_2899.2.4 bus2=UC1215201.2.4 linecode=105_2 length=0.03 units=km
New Line.RBT_1237914 phases=2 bus1=BT291101.1.4 bus2=UC1237914.1.4 linecode=105_2 length=0.03 units=km
New Line.RBT_1215221 phases=3 bus1=ET12_2900.1.2.4 bus2=UC1215221.1.2.4 linecode=83_3 length=0.018 units=km
New Line.RBT_1221995 phases=2 bus1=BT277441.1.4 bus2=UC1221995.1.4 linecode=50_2 length=0.003 units=km
New Line.RBT_1214945 phases=2 bus1=ET12_2990.1.4 bus2=UC1214945.1.4 linecode=50_2 length=0.01432 units=km
New Line.RBT_1237147 phases=3 bus1=ET12_2990.1.2.4 bus2=UC1237147.1.2.4 linecode=110_3 length=0.03 units=km
New Line.RBT_1236936 phases=2 bus1=ET12_3030.1.4 bus2=UC1236936.1.4 linecode=105_2 length=0.025 units=km
New Line.RBT_1222719 phases=2 bus1=BT619171.1.4 bus2=UC1222719.1.4 linecode=50_2 length=0.015 units=km
New Line.RBT_1226692 phases=2 bus1=BT619151.1.4 bus2=UC1226692.1.4 linecode=50_2 length=0.02 units=km
New Line.RBT_1222715 phases=2 bus1=BT474411.2.4 bus2=UC1222715.2.4 linecode=50_2 length=0.021 units=km
New Line.RBT_1223012 phases=2 bus1=BT619131.1.4 bus2=UC1223012.1.4 linecode=50_2 length=0.02 units=km
New Line.RBT_1231857 phases=2 bus1=BT619101.2.4 bus2=UC1231857.2.4 linecode=50_2 length=0.03 units=km
New Line.RBT_1223062 phases=2 bus1=BT601361.1.4 bus2=UC1223062.1.4 linecode=50_2 length=0.024 units=km
New Line.RBT_1222711 phases=2 bus1=ET12_3032.1.4 bus2=UC1222711.1.4 linecode=50_2 length=0.0203 units=km
New Line.RBT_1222712 phases=2 bus1=BT614751.2.4 bus2=UC1222712.2.4 linecode=50_2 length=0.02 units=km
New Line.RBT_1223008 phases=3 bus1=ET12_3088.1.2.4 bus2=UC1223008.1.2.4 linecode=83_3 length=0.00706 units=km
New Line.RBT_1227345 phases=2 bus1=ET12_3101.1.4 bus2=UC1227345.1.4 linecode=50_2 length=0.01886 units=km
New Line.RBT_1238601 phases=4 bus1=ET12_3101.1.2.3.4 bus2=UC1238601.1.2.3.4 linecode=51_4 length=0.005 units=km
New Line.RBT_1215163 phases=4 bus1=ET12_3109.1.2.3.4 bus2=UC1215163.1.2.3.4 linecode=51_4 length=0.01415 units=km
New Line.RBT_1225630 phases=3 bus1=ET12_3114.1.2.4 bus2=UC1225630.1.2.4 linecode=83_3 length=0.00713 units=km
New Line.RBT_1236238 phases=2 bus1=BT14051.1.4 bus2=UC1236238.1.4 linecode=105_2 length=0.03 units=km
New Line.RBT_1214918 phases=2 bus1=BT14791.1.4 bus2=UC1214918.1.4 linecode=50_2 length=0.026 units=km
New Line.RBT_1214920 phases=2 bus1=BT14051.2.4 bus2=UC1214920.2.4 linecode=50_2 length=0.03 units=km
New Line.RBT_1214921 phases=2 bus1=BT14041.2.4 bus2=UC1214921.2.4 linecode=108_2 length=0.00313 units=km
New Line.RBT_1215001 phases=3 bus1=BT11661.1.2.4 bus2=UC1215001.1.2.4 linecode=83_3 length=0.0123 units=km
New Line.RBT_1232011 phases=2 bus1=BT676801.2.4 bus2=UC1232011.2.4 linecode=50_2 length=0.03 units=km
New Line.RBT_1216183 phases=2 bus1=BT11651.2.4 bus2=UC1216183.2.4 linecode=50_2 length=0.025 units=km
New Line.RBT_1233680 phases=2 bus1=ET12_3219.1.4 bus2=UC1233680.1.4 linecode=105_2 length=0.013 units=km
New Line.RBT_1215164 phases=2 bus1=BT67231.1.4 bus2=UC1215164.1.4 linecode=108_2 length=0.005 units=km
New Line.RBT_1216174 phases=2 bus1=BT304831.1.4 bus2=UC1216174.1.4 linecode=50_2 length=0.02 units=km
New Line.RBT_1224042 phases=4 bus1=ET12_3268.1.2.3.4 bus2=UC1224042.1.2.3.4 linecode=51_4 length=0.01058 units=km
New Line.RBT_1225636 phases=2 bus1=BT61521.2.4 bus2=UC1225636.2.4 linecode=50_2 length=0.029 units=km
New Line.RBT_1225172 phases=2 bus1=ET12_3304.2.4 bus2=UC1225172.2.4 linecode=50_2 length=0.03 units=km
New Line.RBT_1216113 phases=2 bus1=ET12_3304.1.4 bus2=UC1216113.1.4 linecode=50_2 length=0.00995 units=km
New Line.RBT_1215127 phases=2 bus1=BT61521.2.4 bus2=UC1215127.2.4 linecode=50_2 length=0.011 units=km
New Line.RBT_1224047 phases=2 bus1=ET12_3305.1.4 bus2=UC1224047.1.4 linecode=105_2 length=0.023 units=km
New Line.RBT_1225162 phases=2 bus1=ET12_3320.1.4 bus2=UC1225162.1.4 linecode=50_2 length=0.00968 units=km
New Line.RBT_1225160 phases=2 bus1=ET12_3322.1.4 bus2=UC1225160.1.4 linecode=50_2 length=0.02506 units=km
New Line.RBT_1236483 phases=2 bus1=ET12_3322.1.4 bus2=UC1236483.1.4 linecode=105_2 length=0.03 units=km
New Line.RBT_1236484 phases=2 bus1=ET12_3322.1.4 bus2=UC1236484.1.4 linecode=105_2 length=0.03 units=km
New Line.RBT_1236787 phases=2 bus1=BT1281.1.4 bus2=UC1236787.1.4 linecode=105_2 length=0.02 units=km
New Line.RBT_1227339 phases=2 bus1=BT581261.2.4 bus2=UC1227339.2.4 linecode=50_2 length=0.009 units=km