New Circuit.1_BOES_1 basekv=23.1 pu=1 bus1=1_BOES_1 r1=0 x1=0.0001
