New Line.RBT_2113023 phases=2 bus1=BT333031.1.4 bus2=UC2113023.1.4 linecode=50_2 length=0.023 units=km
New Line.RBT_2118712 phases=4 bus1=BT333031.1.2.3.4 bus2=UC2118712.1.2.3.4 linecode=51_4 length=0.02247 units=km
New Line.RBT_2127388 phases=3 bus1=ET21_1202.2.3.4 bus2=UC2127388.2.3.4 linecode=119_3 length=0.014 units=km
New Line.RBT_2113076 phases=3 bus1=ET21_121.1.2.4 bus2=UC2113076.1.2.4 linecode=83_3 length=0.01989 units=km
New Line.RBT_2113055 phases=4 bus1=BT7501.1.2.3.4 bus2=UC2113055.1.2.3.4 linecode=51_4 length=0.012 units=km
New Line.RBT_2129867 phases=4 bus1=BT71491.1.2.3.4 bus2=UC2129867.1.2.3.4 linecode=51_4 length=0.03 units=km
New Line.RBT_2126256 phases=4 bus1=BT71451.1.2.3.4 bus2=UC2126256.1.2.3.4 linecode=51_4 length=0.012 units=km
New Line.RBT_2134668 phases=4 bus1=BT71451.1.2.3.4 bus2=UC2134668.1.2.3.4 linecode=51_4 length=0.02778 units=km
New Line.RBT_2113075 phases=4 bus1=BT317501.1.2.3.4 bus2=UC2113075.1.2.3.4 linecode=51_4 length=0.01779 units=km
New Line.RBT_2124342 phases=4 bus1=BT621581.1.2.3.4 bus2=UC2124342.1.2.3.4 linecode=51_4 length=0.012 units=km
New Line.RBT_2113455 phases=4 bus1=BT761461.1.2.3.4 bus2=UC2113455.1.2.3.4 linecode=51_4 length=0.021 units=km
New Line.RBT_2113053 phases=4 bus1=BT70751.1.2.3.4 bus2=UC2113053.1.2.3.4 linecode=51_4 length=0.028 units=km
New Line.RBT_2113054 phases=4 bus1=BT70751.1.2.3.4 bus2=UC2113054.1.2.3.4 linecode=51_4 length=0.012 units=km
New Line.RBT_2113010 phases=2 bus1=BT70611.1.4 bus2=UC2113010.1.4 linecode=108_2 length=0.01 units=km
New Line.RBT_2113011 phases=4 bus1=BT70731.1.2.3.4 bus2=UC2113011.1.2.3.4 linecode=51_4 length=0.021 units=km
New Line.RBT_2113012 phases=4 bus1=BT70681.1.2.3.4 bus2=UC2113012.1.2.3.4 linecode=51_4 length=0.017 units=km
New Line.RBT_2132512 phases=2 bus1=BT70601.3.4 bus2=UC2132512.3.4 linecode=50_2 length=0.02562 units=km
New Line.RBT_2135185 phases=2 bus1=BT749071.1.4 bus2=UC2135185.1.4 linecode=108_2 length=0.012 units=km
New Line.RBT_2128424 phases=4 bus1=BT636411.1.2.3.4 bus2=UC2128424.1.2.3.4 linecode=51_4 length=0.015 units=km
New Line.RBT_2130607 phases=4 bus1=ET21_143.1.2.3.4 bus2=UC2130607.1.2.3.4 linecode=109_4 length=0.0157 units=km
New Line.RBT_2138374 phases=2 bus1=BT761471.2.4 bus2=UC2138374.2.4 linecode=105_2 length=0.02 units=km
New Line.RBT_2134227 phases=4 bus1=BT70751.1.2.3.4 bus2=UC2134227.1.2.3.4 linecode=51_4 length=0.00903 units=km
New Line.RBT_2131196 phases=2 bus1=ET21_144.3.4 bus2=UC2131196.3.4 linecode=50_2 length=0.02099 units=km
New Line.RBT_2129280 phases=4 bus1=BT27631.1.2.3.4 bus2=UC2129280.1.2.3.4 linecode=51_4 length=0.023 units=km
New Line.RBT_2136368 phases=4 bus1=BT701811.1.2.3.4 bus2=UC2136368.1.2.3.4 linecode=109_4 length=0.028 units=km
New Line.RBT_2136372 phases=2 bus1=BT27641.3.4 bus2=UC2136372.3.4 linecode=50_2 length=0.03 units=km
New Line.RBT_2136770 phases=4 bus1=BT133461.1.2.3.4 bus2=UC2136770.1.2.3.4 linecode=51_4 length=0.02 units=km
New Line.RBT_2113019 phases=4 bus1=BT133461.1.2.3.4 bus2=UC2113019.1.2.3.4 linecode=51_4 length=0.012 units=km
New Line.RBT_2113020 phases=2 bus1=BT27631.2.4 bus2=UC2113020.2.4 linecode=50_2 length=0.03 units=km
New Line.RBT_2113022 phases=4 bus1=BT27661.1.2.3.4 bus2=UC2113022.1.2.3.4 linecode=51_4 length=0.013 units=km
New Line.RBT_2118355 phases=2 bus1=BT27661.1.4 bus2=UC2118355.1.4 linecode=50_2 length=0.03 units=km
New Line.RBT_2121970 phases=4 bus1=ET21_144.1.2.3.4 bus2=UC2121970.1.2.3.4 linecode=51_4 length=0.01417 units=km
New Line.RBT_2124323 phases=2 bus1=BT27691.1.4 bus2=UC2124323.1.4 linecode=50_2 length=0.012 units=km
New Line.RBT_2113014 phases=4 bus1=BT27681.1.2.3.4 bus2=UC2113014.1.2.3.4 linecode=51_4 length=0.009 units=km
New Line.RBT_2113015 phases=4 bus1=BT14541.1.2.3.4 bus2=UC2113015.1.2.3.4 linecode=51_4 length=0.027 units=km
New Line.RBT_2135187 phases=4 bus1=BT27681.1.2.3.4 bus2=UC2135187.1.2.3.4 linecode=51_4 length=0.02862 units=km
New Line.RBT_2113051 phases=2 bus1=BT71661.1.4 bus2=UC2113051.1.4 linecode=108_2 length=0.027 units=km
New Line.RBT_2113052 phases=2 bus1=BT71661.1.4 bus2=UC2113052.1.4 linecode=50_2 length=0.018 units=km
New Line.RBT_2113056 phases=4 bus1=ET21_2906.1.2.3.4 bus2=UC2113056.1.2.3.4 linecode=51_4 length=0.021 units=km
New Line.RBT_2113057 phases=4 bus1=BT340381.1.2.3.4 bus2=UC2113057.1.2.3.4 linecode=51_4 length=0.017 units=km
New Line.RBT_2113456 phases=4 bus1=BT105041.1.2.3.4 bus2=UC2113456.1.2.3.4 linecode=51_4 length=0.008 units=km
New Line.RBT_2113003 phases=4 bus1=BT70531.1.2.3.4 bus2=UC2113003.1.2.3.4 linecode=51_4 length=0.016 units=km
New Line.RBT_2113004 phases=4 bus1=BT151021.1.2.3.4 bus2=UC2113004.1.2.3.4 linecode=51_4 length=0.02 units=km
New Line.RBT_2136842 phases=2 bus1=ET21_325.3.4 bus2=UC2136842.3.4 linecode=105_2 length=0.03 units=km
New Line.RBT_2135106 phases=2 bus1=BT105041.1.4 bus2=UC2135106.1.4 linecode=50_2 length=0.03 units=km
New Line.RBT_2131364 phases=4 bus1=BT105033.1.2.3.4 bus2=UC2131364.1.2.3.4 linecode=51_4 length=0.028 units=km
New Line.RBT_2130606 phases=2 bus1=ET21_4029.3.4 bus2=UC2130606.3.4 linecode=105_2 length=0.01 units=km
New Line.RBT_2133553 phases=2 bus1=BT744121.1.4 bus2=UC2133553.1.4 linecode=50_2 length=0.01219 units=km
New Line.RBT_2113007 phases=4 bus1=BT645021.1.2.3.4 bus2=UC2113007.1.2.3.4 linecode=51_4 length=0.013 units=km
New Line.RBT_2113009 phases=4 bus1=BT70721.1.2.3.4 bus2=UC2113009.1.2.3.4 linecode=51_4 length=0.029 units=km
New Line.RBT_2124318 phases=2 bus1=BT392731.1.4 bus2=UC2124318.1.4 linecode=50_2 length=0.01471 units=km
New Line.RBT_2130277 phases=4 bus1=ET21_4225.1.2.3.4 bus2=UC2130277.1.2.3.4 linecode=51_4 length=0.014 units=km
New Line.RBT_2135552 phases=4 bus1=BT339431.1.2.3.4 bus2=UC2135552.1.2.3.4 linecode=51_4 length=0.02 units=km
New Line.RBT_2136261 phases=2 bus1=BT339421.2.4 bus2=UC2136261.2.4 linecode=50_2 length=0.025 units=km
New Line.RBT_2113058 phases=4 bus1=BT327771.1.2.3.4 bus2=UC2113058.1.2.3.4 linecode=51_4 length=0.012 units=km
New Line.RBT_2122823 phases=2 bus1=ET21_4314.1.4 bus2=UC2122823.1.4 linecode=108_2 length=0.01235 units=km
New Line.RBT_2131121 phases=4 bus1=ET21_4446.1.2.3.4 bus2=UC2131121.1.2.3.4 linecode=51_4 length=0.0125 units=km
New Line.RBT_2131368 phases=2 bus1=ET21_4536.1.4 bus2=UC2131368.1.4 linecode=50_2 length=0.00844 units=km
New Line.RBT_2131947 phases=2 bus1=ET21_4811.1.4 bus2=UC2131947.1.4 linecode=50_2 length=0.03 units=km
New Line.RBT_2131157 phases=4 bus1=ET21_4811.1.2.3.4 bus2=UC2131157.1.2.3.4 linecode=51_4 length=0.01924 units=km
New Line.RBT_2130614 phases=2 bus1=ET21_4811.3.4 bus2=UC2130614.3.4 linecode=50_2 length=0.028 units=km
New Line.RBT_2130881 phases=2 bus1=BT10251.1.4 bus2=UC2130881.1.4 linecode=105_2 length=0.03 units=km
New Line.RBT_2130379 phases=2 bus1=BT10231.2.4 bus2=UC2130379.2.4 linecode=105_2 length=0.013 units=km
New Line.RBT_2129901 phases=2 bus1=BT70521.1.4 bus2=UC2129901.1.4 linecode=50_2 length=0.007 units=km
New Line.RBT_2133345 phases=2 bus1=BT10251.2.4 bus2=UC2133345.2.4 linecode=50_2 length=0.02152 units=km
New Line.RBT_2135109 phases=2 bus1=BT70521.2.4 bus2=UC2135109.2.4 linecode=50_2 length=0.02728 units=km
New Line.RBT_2113002 phases=4 bus1=BT10251.1.2.3.4 bus2=UC2113002.1.2.3.4 linecode=51_4 length=0.024 units=km
New Line.RBT_2114379 phases=4 bus1=BT70521.1.2.3.4 bus2=UC2114379.1.2.3.4 linecode=51_4 length=0.019 units=km
New Line.RBT_2134225 phases=4 bus1=ET21_5328.1.2.3.4 bus2=UC2134225.1.2.3.4 linecode=51_4 length=0.01245 units=km
New Line.RBT_2135031 phases=4 bus1=ET21_5493.1.2.3.4 bus2=UC2135031.1.2.3.4 linecode=51_4 length=0.005 units=km
New Line.RBT_2136367 phases=4 bus1=ET21_5889.1.2.3.4 bus2=UC2136367.1.2.3.4 linecode=51_4 length=0.03 units=km
New Line.RBT_2137403 phases=4 bus1=ET21_6100.1.2.3.4 bus2=UC2137403.1.2.3.4 linecode=51_4 length=0.012 units=km
New Line.RBT_2113013 phases=4 bus1=ET21_6123.1.2.3.4 bus2=UC2113013.1.2.3.4 linecode=51_4 length=0.014 units=km
New Line.RBT_311784 phases=4 bus1=BT20511.1.2.3.4 bus2=UC311784.1.2.3.4 linecode=51_4 length=0.008 units=km
New Line.RBT_322819 phases=4 bus1=BT20471.1.2.3.4 bus2=UC322819.1.2.3.4 linecode=51_4 length=0.027 units=km
New Line.RBT_326313 phases=2 bus1=BT336261.1.4 bus2=UC326313.1.4 linecode=50_2 length=0.021 units=km
New Line.RBT_311795 phases=4 bus1=BT6892.1.2.3.4 bus2=UC311795.1.2.3.4 linecode=51_4 length=0.03 units=km
New Line.RBT_311796 phases=2 bus1=BT6901.1.4 bus2=UC311796.1.4 linecode=105_2 length=0.022 units=km
New Line.RBT_311797 phases=2 bus1=ET3_102.2.4 bus2=UC311797.2.4 linecode=50_2 length=0.016 units=km
New Line.RBT_311798 phases=4 bus1=BT26151.1.2.3.4 bus2=UC311798.1.2.3.4 linecode=51_4 length=0.021 units=km
New Line.RBT_311904 phases=4 bus1=BT17431.1.2.3.4 bus2=UC311904.1.2.3.4 linecode=51_4 length=0.03 units=km
New Line.RBT_336666 phases=2 bus1=BT336261.1.4 bus2=UC336666.1.4 linecode=105_2 length=0.03 units=km
New Line.RBT_311945 phases=4 bus1=BT6071.1.2.3.4 bus2=UC311945.1.2.3.4 linecode=51_4 length=0.004 units=km
New Line.RBT_311946 phases=4 bus1=ET3_103.1.2.3.4 bus2=UC311946.1.2.3.4 linecode=51_4 length=0.03 units=km
New Line.RBT_311960 phases=2 bus1=ET3_104.3.4 bus2=UC311960.3.4 linecode=50_2 length=0.013 units=km
New Line.RBT_311961 phases=2 bus1=BT22861.2.4 bus2=UC311961.2.4 linecode=108_2 length=0.022 units=km
New Line.RBT_311962 phases=4 bus1=BT143011.1.2.3.4 bus2=UC311962.1.2.3.4 linecode=51_4 length=0.03 units=km
New Line.RBT_312558 phases=4 bus1=BT22901.1.2.3.4 bus2=UC312558.1.2.3.4 linecode=51_4 length=0.02 units=km
New Line.RBT_323371 phases=4 bus1=BT22861.1.2.3.4 bus2=UC323371.1.2.3.4 linecode=51_4 length=0.026 units=km
New Line.RBT_328326 phases=2 bus1=BT23801.3.4 bus2=UC328326.3.4 linecode=50_2 length=0.013 units=km
New Line.RBT_334037 phases=4 bus1=BT23801.1.2.3.4 bus2=UC334037.1.2.3.4 linecode=51_4 length=0.03 units=km
New Line.RBT_334822 phases=2 bus1=BT125371.1.4 bus2=UC334822.1.4 linecode=50_2 length=0.01428 units=km
New Line.RBT_311968 phases=4 bus1=ET3_105.1.2.3.4 bus2=UC311968.1.2.3.4 linecode=51_4 length=0.025 units=km
New Line.RBT_311969 phases=4 bus1=BT111881.1.2.3.4 bus2=UC311969.1.2.3.4 linecode=51_4 length=0.025 units=km
New Line.RBT_311973 phases=4 bus1=BT637941.1.2.3.4 bus2=UC311973.1.2.3.4 linecode=51_4 length=0.003 units=km
New Line.RBT_311998 phases=2 bus1=BT123801.1.4 bus2=UC311998.1.4 linecode=105_2 length=0.004 units=km
New Line.RBT_311999 phases=2 bus1=BT123791.1.4 bus2=UC311999.1.4 linecode=50_2 length=0.008 units=km
New Line.RBT_312101 phases=4 bus1=BT123661.1.2.3.4 bus2=UC312101.1.2.3.4 linecode=51_4 length=0.025 units=km
New Line.RBT_312105 phases=2 bus1=BT123751.2.4 bus2=UC312105.2.4 linecode=50_2 length=0.013 units=km
New Line.RBT_312106 phases=2 bus1=BT123771.2.4 bus2=UC312106.2.4 linecode=108_2 length=0.007 units=km
New Line.RBT_312107 phases=4 bus1=BT123721.1.2.3.4 bus2=UC312107.1.2.3.4 linecode=51_4 length=0.03 units=km
New Line.RBT_312108 phases=2 bus1=BT123761.2.4 bus2=UC312108.2.4 linecode=50_2 length=0.008 units=km
New Line.RBT_312109 phases=2 bus1=BT123761.3.4 bus2=UC312109.3.4 linecode=50_2 length=0.01303 units=km
New Line.RBT_334038 phases=4 bus1=BT720161.1.2.3.4 bus2=UC334038.1.2.3.4 linecode=51_4 length=0.01782 units=km
New Line.RBT_333576 phases=2 bus1=BT123731.3.4 bus2=UC333576.3.4 linecode=50_2 length=0.01279 units=km
New Line.RBT_333061 phases=2 bus1=BT720161.1.4 bus2=UC333061.1.4 linecode=50_2 length=0.02916 units=km
New Line.RBT_336605 phases=2 bus1=BT720161.1.4 bus2=UC336605.1.4 linecode=105_2 length=0.03 units=km
New Line.RBT_337640 phases=4 bus1=BT123801.1.2.3.4 bus2=UC337640.1.2.3.4 linecode=51_4 length=0.007 units=km
New Line.RBT_337957 phases=2 bus1=BT123781.1.4 bus2=UC337957.1.4 linecode=105_2 length=0.02 units=km
New Line.RBT_312125 phases=4 bus1=ET3_107.1.2.3.4 bus2=UC312125.1.2.3.4 linecode=51_4 length=0.03 units=km
New Line.RBT_312120 phases=4 bus1=BT91951.1.2.3.4 bus2=UC312120.1.2.3.4 linecode=51_4 length=0.024 units=km
New Line.RBT_312121 phases=4 bus1=BT123401.1.2.3.4 bus2=UC312121.1.2.3.4 linecode=51_4 length=0.011 units=km
New Line.RBT_312122 phases=4 bus1=BT117901.1.2.3.4 bus2=UC312122.1.2.3.4 linecode=51_4 length=0.02093 units=km
New Line.RBT_312123 phases=4 bus1=BT117921.1.2.3.4 bus2=UC312123.1.2.3.4 linecode=51_4 length=0.03 units=km
New Line.RBT_338723 phases=2 bus1=BT117921.2.4 bus2=UC338723.2.4 linecode=105_2 length=0.022 units=km
New Line.RBT_311772 phases=4 bus1=BT149822.1.2.3.4 bus2=UC311772.1.2.3.4 linecode=51_4 length=0.00795 units=km
New Line.RBT_311773 phases=4 bus1=BT149081.1.2.3.4 bus2=UC311773.1.2.3.4 linecode=51_4 length=0.01854 units=km
New Line.RBT_320696 phases=4 bus1=BT149081.1.2.3.4 bus2=UC320696.1.2.3.4 linecode=51_4 length=0.016 units=km
New Line.RBT_321051 phases=4 bus1=BT463921.1.2.3.4 bus2=UC321051.1.2.3.4 linecode=51_4 length=0.01 units=km
New Line.RBT_319979 phases=4 bus1=BT126341.1.2.3.4 bus2=UC319979.1.2.3.4 linecode=51_4 length=0.01 units=km
New Line.RBT_312653 phases=2 bus1=BT126381.1.4 bus2=UC312653.1.4 linecode=50_2 length=0.015 units=km
New Line.RBT_311767 phases=4 bus1=BT126291.1.2.3.4 bus2=UC311767.1.2.3.4 linecode=51_4 length=0.03 units=km
New Line.RBT_311768 phases=4 bus1=BT126251.1.2.3.4 bus2=UC311768.1.2.3.4 linecode=51_4 length=0.03 units=km
New Line.RBT_311762 phases=4 bus1=BT111891.1.2.3.4 bus2=UC311762.1.2.3.4 linecode=51_4 length=0.03 units=km
New Line.RBT_311763 phases=4 bus1=BT126361.1.2.3.4 bus2=UC311763.1.2.3.4 linecode=51_4 length=0.01479 units=km
New Line.RBT_311765 phases=2 bus1=BT126371.1.4 bus2=UC311765.1.4 linecode=50_2 length=0.006 units=km
New Line.RBT_338122 phases=2 bus1=BT126311.2.4 bus2=UC338122.2.4 linecode=105_2 length=0.016 units=km
New Line.RBT_337651 phases=2 bus1=BT126271.3.4 bus2=UC337651.3.4 linecode=50_2 length=0.025 units=km
New Line.RBT_331075 phases=2 bus1=BT126351.3.4 bus2=UC331075.3.4 linecode=50_2 length=0.03 units=km
New Line.RBT_334481 phases=4 bus1=BT624481.1.2.3.4 bus2=UC334481.1.2.3.4 linecode=51_4 length=0.01104 units=km
New Line.RBT_311744 phases=4 bus1=BT103991.1.2.3.4 bus2=UC311744.1.2.3.4 linecode=51_4 length=0.03 units=km
New Line.RBT_311745 phases=4 bus1=BT147021.1.2.3.4 bus2=UC311745.1.2.3.4 linecode=51_4 length=0.012 units=km
New Line.RBT_311746 phases=4 bus1=BT147051.1.2.3.4 bus2=UC311746.1.2.3.4 linecode=51_4 length=0.028 units=km
New Line.RBT_311755 phases=4 bus1=BT260741.1.2.3.4 bus2=UC311755.1.2.3.4 linecode=51_4 length=0.013 units=km
New Line.RBT_311756 phases=4 bus1=BT126471.1.2.3.4 bus2=UC311756.1.2.3.4 linecode=51_4 length=0.021 units=km
New Line.RBT_311758 phases=4 bus1=BT364161.1.2.3.4 bus2=UC311758.1.2.3.4 linecode=51_4 length=0.017 units=km
New Line.RBT_323377 phases=4 bus1=BT145181.1.2.3.4 bus2=UC323377.1.2.3.4 linecode=51_4 length=0.03 units=km
New Line.RBT_320158 phases=4 bus1=BT104931.1.2.3.4 bus2=UC320158.1.2.3.4 linecode=51_4 length=0.02 units=km
New Line.RBT_329514 phases=4 bus1=BT104981.1.2.3.4 bus2=UC329514.1.2.3.4 linecode=51_4 length=0.03 units=km
New Line.RBT_330034 phases=2 bus1=BT104961.1.4 bus2=UC330034.1.4 linecode=50_2 length=0.01 units=km
New Line.RBT_311740 phases=4 bus1=ET3_113.1.2.3.4 bus2=UC311740.1.2.3.4 linecode=51_4 length=0.03 units=km
New Line.RBT_311743 phases=2 bus1=BT104961.2.4 bus2=UC311743.2.4 linecode=50_2 length=0.022 units=km
New Line.RBT_335482 phases=4 bus1=BT104981.1.2.3.4 bus2=UC335482.1.2.3.4 linecode=51_4 length=0.02923 units=km
New Line.RBT_336007 phases=2 bus1=BT806291.3.4 bus2=UC336007.3.4 linecode=108_2 length=0.025 units=km
New Line.RBT_331883 phases=2 bus1=BT803401.2.4 bus2=UC331883.2.4 linecode=50_2 length=0.02954 units=km
New Line.RBT_311726 phases=2 bus1=BT103941.1.4 bus2=UC311726.1.4 linecode=50_2 length=0.019 units=km
New Line.RBT_311727 phases=2 bus1=BT84981.3.4 bus2=UC311727.3.4 linecode=50_2 length=0.019 units=km
New Line.RBT_311708 phases=2 bus1=BT757171.2.4 bus2=UC311708.2.4 linecode=50_2 length=0.02533 units=km
New Line.RBT_330642 phases=4 bus1=BT83852.1.2.3.4 bus2=UC330642.1.2.3.4 linecode=51_4 length=0.008 units=km
New Line.RBT_328333 phases=2 bus1=BT83852.3.4 bus2=UC328333.3.4 linecode=50_2 length=0.007 units=km
New Line.RBT_321042 phases=2 bus1=BT83852.3.4 bus2=UC321042.3.4 linecode=50_2 length=0.015 units=km
New Line.RBT_312798 phases=2 bus1=BT83831.2.4 bus2=UC312798.2.4 linecode=50_2 length=0.007 units=km
New Line.RBT_318473 phases=4 bus1=BT83852.1.2.3.4 bus2=UC318473.1.2.3.4 linecode=51_4 length=0.02484 units=km
New Line.RBT_333132 phases=4 bus1=BT83871.1.2.3.4 bus2=UC333132.1.2.3.4 linecode=51_4 length=0.00528 units=km
New Line.RBT_334679 phases=4 bus1=BT803552.1.2.3.4 bus2=UC334679.1.2.3.4 linecode=51_4 length=0.02257 units=km
New Line.RBT_321053 phases=4 bus1=BT341911.1.2.3.4 bus2=UC321053.1.2.3.4 linecode=51_4 length=0.008 units=km
New Line.RBT_311717 phases=4 bus1=BT83791.1.2.3.4 bus2=UC311717.1.2.3.4 linecode=51_4 length=0.028 units=km
New Line.RBT_311718 phases=4 bus1=BT83761.1.2.3.4 bus2=UC311718.1.2.3.4 linecode=51_4 length=0.021 units=km
New Line.RBT_311722 phases=2 bus1=BT101271.1.4 bus2=UC311722.1.4 linecode=105_2 length=0.009 units=km
New Line.RBT_312541 phases=2 bus1=BT712081.1.4 bus2=UC312541.1.4 linecode=50_2 length=0.01946 units=km
New Line.RBT_311900 phases=4 bus1=BT32271.1.2.3.4 bus2=UC311900.1.2.3.4 linecode=51_4 length=0.03 units=km
New Line.RBT_311702 phases=2 bus1=BT32321.2.4 bus2=UC311702.2.4 linecode=50_2 length=0.03 units=km
New Line.RBT_319977 phases=4 bus1=ET3_118.1.2.3.4 bus2=UC319977.1.2.3.4 linecode=51_4 length=0.025 units=km
New Line.RBT_325975 phases=2 bus1=BT561361.1.4 bus2=UC325975.1.4 linecode=105_2 length=0.019 units=km
New Line.RBT_330941 phases=2 bus1=BT561361.1.4 bus2=UC330941.1.4 linecode=50_2 length=0.013 units=km
New Line.RBT_333014 phases=2 bus1=BT32321.1.4 bus2=UC333014.1.4 linecode=105_2 length=0.005 units=km
New Line.RBT_318378 phases=4 bus1=BT81792.1.2.3.4 bus2=UC318378.1.2.3.4 linecode=51_4 length=0.015 units=km
New Line.RBT_311882 phases=4 bus1=BT85461.1.2.3.4 bus2=UC311882.1.2.3.4 linecode=109_4 length=0.02 units=km
New Line.RBT_312126 phases=2 bus1=BT148671.1.4 bus2=UC312126.1.4 linecode=105_2 length=0.03 units=km
New Line.RBT_312127 phases=2 bus1=BT148661.1.4 bus2=UC312127.1.4 linecode=50_2 length=0.02795 units=km
New Line.RBT_312130 phases=2 bus1=ET3_1193.2.4 bus2=UC312130.2.4 linecode=50_2 length=0.02777 units=km
New Line.RBT_312132 phases=3 bus1=BT148611.1.2.4 bus2=UC312132.1.2.4 linecode=115_3 length=0.00449 units=km
New Line.RBT_334271 phases=2 bus1=BT148631.2.4 bus2=UC334271.2.4 linecode=105_2 length=0.027 units=km
New Line.RBT_335484 phases=2 bus1=BT148631.2.4 bus2=UC335484.2.4 linecode=50_2 length=0.02388 units=km
New Line.RBT_335419 phases=2 bus1=BT787211.2.4 bus2=UC335419.2.4 linecode=50_2 length=0.025 units=km
New Line.RBT_335489 phases=2 bus1=ET3_120.2.4 bus2=UC335489.2.4 linecode=50_2 length=0.03 units=km
New Line.RBT_335952 phases=2 bus1=BT267532.1.4 bus2=UC335952.1.4 linecode=108_2 length=0.03 units=km
New Line.RBT_333495 phases=2 bus1=BT267532.1.4 bus2=UC333495.1.4 linecode=105_2 length=0.026 units=km
New Line.RBT_337627 phases=2 bus1=BT799711.1.4 bus2=UC337627.1.4 linecode=50_2 length=0.011 units=km
New Line.RBT_338126 phases=4 bus1=BT799711.1.2.3.4 bus2=UC338126.1.2.3.4 linecode=51_4 length=0.03 units=km
New Line.RBT_338140 phases=2 bus1=BT799711.3.4 bus2=UC338140.3.4 linecode=50_2 length=0.03 units=km
New Line.RBT_338315 phases=2 bus1=BT799711.2.4 bus2=UC338315.2.4 linecode=50_2 length=0.01 units=km
New Line.RBT_311868 phases=2 bus1=BT147321.3.4 bus2=UC311868.3.4 linecode=50_2 length=0.03 units=km
New Line.RBT_311869 phases=2 bus1=BT267532.2.4 bus2=UC311869.2.4 linecode=108_2 length=0.008 units=km
New Line.RBT_311870 phases=4 bus1=BT787211.1.2.3.4 bus2=UC311870.1.2.3.4 linecode=51_4 length=0.018 units=km
New Line.RBT_321036 phases=4 bus1=ET3_120.1.2.3.4 bus2=UC321036.1.2.3.4 linecode=51_4 length=0.03 units=km
New Line.RBT_311788 phases=4 bus1=BT40421.1.2.3.4 bus2=UC311788.1.2.3.4 linecode=51_4 length=0.005 units=km
New Line.RBT_311789 phases=2 bus1=BT40321.2.4 bus2=UC311789.2.4 linecode=50_2 length=0.007 units=km
New Line.RBT_311792 phases=2 bus1=BT6841.1.4 bus2=UC311792.1.4 linecode=50_2 length=0.005 units=km
New Line.RBT_311793 phases=4 bus1=BT6871.1.2.3.4 bus2=UC311793.1.2.3.4 linecode=51_4 length=0.023 units=km
New Line.RBT_311766 phases=2 bus1=BT6821.2.4 bus2=UC311766.2.4 linecode=108_2 length=0.003 units=km
New Line.RBT_312542 phases=2 bus1=BT149561.2.4 bus2=UC312542.2.4 linecode=50_2 length=0.01896 units=km
New Line.RBT_312574 phases=2 bus1=BT111331.2.4 bus2=UC312574.2.4 linecode=50_2 length=0.00999 units=km
New Line.RBT_320167 phases=4 bus1=ET3_1429.1.2.3.4 bus2=UC320167.1.2.3.4 linecode=51_4 length=0.00535 units=km
New Line.RBT_325734 phases=2 bus1=ET3_1429.1.4 bus2=UC325734.1.4 linecode=50_2 length=0.01021 units=km
New Line.RBT_327497 phases=2 bus1=BT206621.1.4 bus2=UC327497.1.4 linecode=50_2 length=0.00817 units=km
New Line.RBT_312678 phases=2 bus1=BT149421.1.4 bus2=UC312678.1.4 linecode=108_2 length=0.009 units=km
New Line.RBT_312153 phases=2 bus1=BT108461.2.4 bus2=UC312153.2.4 linecode=50_2 length=0.023 units=km
New Line.RBT_311875 phases=2 bus1=BT108451.1.4 bus2=UC311875.1.4 linecode=50_2 length=0.007 units=km
New Line.RBT_311876 phases=2 bus1=BT149421.1.4 bus2=UC311876.1.4 linecode=50_2 length=0.01915 units=km
New Line.RBT_338182 phases=2 bus1=BT149401.1.4 bus2=UC338182.1.4 linecode=105_2 length=0.026 units=km
New Line.RBT_337046 phases=2 bus1=BT149411.2.4 bus2=UC337046.2.4 linecode=105_2 length=0.03 units=km
New Line.RBT_339044 phases=2 bus1=BT149401.2.4 bus2=UC339044.2.4 linecode=105_2 length=0.016 units=km
New Line.RBT_339050 phases=3 bus1=BT149411.1.2.4 bus2=UC339050.1.2.4 linecode=83_3 length=0.03 units=km
New Line.RBT_334370 phases=2 bus1=BT149401.1.4 bus2=UC334370.1.4 linecode=50_2 length=0.00881 units=km
New Line.RBT_333578 phases=2 bus1=BT778261.2.4 bus2=UC333578.2.4 linecode=105_2 length=0.016 units=km
New Line.RBT_339043 phases=2 bus1=BT778261.2.4 bus2=UC339043.2.4 linecode=105_2 length=0.0222 units=km
New Line.RBT_336327 phases=2 bus1=BT149531.1.4 bus2=UC336327.1.4 linecode=105_2 length=0.0225 units=km
New Line.RBT_311871 phases=2 bus1=BT149521.1.4 bus2=UC311871.1.4 linecode=105_2 length=0.013 units=km
New Line.RBT_311872 phases=2 bus1=BT149531.1.4 bus2=UC311872.1.4 linecode=105_2 length=0.011 units=km
New Line.RBT_311873 phases=2 bus1=ET3_1431.1.4 bus2=UC311873.1.4 linecode=108_2 length=0.009 units=km
New Line.RBT_312685 phases=2 bus1=BT778261.1.4 bus2=UC312685.1.4 linecode=50_2 length=0.011 units=km
New Line.RBT_318353 phases=2 bus1=ET3_1431.2.4 bus2=UC318353.2.4 linecode=50_2 length=0.008 units=km
New Line.RBT_330875 phases=2 bus1=BT778261.2.4 bus2=UC330875.2.4 linecode=105_2 length=0.015 units=km
New Line.RBT_328335 phases=2 bus1=BT104762.2.4 bus2=UC328335.2.4 linecode=50_2 length=0.02817 units=km
New Line.RBT_311970 phases=4 bus1=BT125451.1.2.3.4 bus2=UC311970.1.2.3.4 linecode=51_4 length=0.03 units=km
New Line.RBT_311790 phases=4 bus1=ET3_1556.1.2.3.4 bus2=UC311790.1.2.3.4 linecode=51_4 length=0.012 units=km
New Line.RBT_311964 phases=2 bus1=BT124701.3.4 bus2=UC311964.3.4 linecode=50_2 length=0.008 units=km
New Line.RBT_311965 phases=2 bus1=BT124731.2.4 bus2=UC311965.2.4 linecode=50_2 length=0.02128 units=km
New Line.RBT_311719 phases=2 bus1=BT84031.2.4 bus2=UC311719.2.4 linecode=50_2 length=0.004 units=km
New Line.RBT_311720 phases=3 bus1=BT712011.1.2.4 bus2=UC311720.1.2.4 linecode=83_3 length=0.01818 units=km
New Line.RBT_311734 phases=2 bus1=BT98181.1.4 bus2=UC311734.1.4 linecode=50_2 length=0.004 units=km
New Line.RBT_338642 phases=2 bus1=BT84021.1.4 bus2=UC338642.1.4 linecode=105_2 length=0.03 units=km
New Line.RBT_335347 phases=2 bus1=BT84021.2.4 bus2=UC335347.2.4 linecode=50_2 length=0.026 units=km
New Line.RBT_333847 phases=2 bus1=BT92802.2.4 bus2=UC333847.2.4 linecode=50_2 length=0.01194 units=km
New Line.RBT_331261 phases=2 bus1=BT787261.1.4 bus2=UC331261.1.4 linecode=50_2 length=0.02023 units=km
New Line.RBT_331262 phases=2 bus1=BT787261.3.4 bus2=UC331262.3.4 linecode=105_2 length=0.01967 units=km
New Line.RBT_331270 phases=4 bus1=ET3_1764.1.2.3.4 bus2=UC331270.1.2.3.4 linecode=51_4 length=0.01591 units=km
New Line.RBT_337536 phases=2 bus1=BT92822.2.4 bus2=UC337536.2.4 linecode=105_2 length=0.03 units=km
New Line.RBT_337623 phases=2 bus1=BT92783.1.4 bus2=UC337623.1.4 linecode=50_2 length=0.01 units=km
New Line.RBT_337831 phases=4 bus1=BT92783.1.2.3.4 bus2=UC337831.1.2.3.4 linecode=51_4 length=0.025 units=km
New Line.RBT_311853 phases=2 bus1=BT92802.3.4 bus2=UC311853.3.4 linecode=50_2 length=0.01183 units=km
New Line.RBT_311854 phases=4 bus1=BT92802.1.2.3.4 bus2=UC311854.1.2.3.4 linecode=51_4 length=0.01319 units=km
New Line.RBT_311856 phases=2 bus1=BT787271.2.4 bus2=UC311856.2.4 linecode=50_2 length=0.02385 units=km
New Line.RBT_311857 phases=2 bus1=BT787271.3.4 bus2=UC311857.3.4 linecode=50_2 length=0.0246 units=km
New Line.RBT_311859 phases=2 bus1=BT92802.1.4 bus2=UC311859.1.4 linecode=105_2 length=0.015 units=km
New Line.RBT_311860 phases=2 bus1=ET3_1764.3.4 bus2=UC311860.3.4 linecode=50_2 length=0.018 units=km
New Line.RBT_311861 phases=2 bus1=BT92831.1.4 bus2=UC311861.1.4 linecode=50_2 length=0.00944 units=km
New Line.RBT_311862 phases=2 bus1=BT787241.1.4 bus2=UC311862.1.4 linecode=108_2 length=0.018 units=km
New Line.RBT_328417 phases=2 bus1=ET3_1764.2.4 bus2=UC328417.2.4 linecode=50_2 length=0.00578 units=km
New Line.RBT_328630 phases=2 bus1=BT787252.3.4 bus2=UC328630.3.4 linecode=105_2 length=0.011 units=km
New Line.RBT_328907 phases=4 bus1=BT92822.1.2.3.4 bus2=UC328907.1.2.3.4 linecode=51_4 length=0.015 units=km
New Line.RBT_317425 phases=4 bus1=ET3_1764.1.2.3.4 bus2=UC317425.1.2.3.4 linecode=51_4 length=0.03 units=km
New Line.RBT_318458 phases=2 bus1=BT787252.2.4 bus2=UC318458.2.4 linecode=50_2 length=0.017 units=km
New Line.RBT_320157 phases=2 bus1=BT787271.1.4 bus2=UC320157.1.4 linecode=50_2 length=0.02529 units=km
New Line.RBT_324279 phases=2 bus1=BT787261.3.4 bus2=UC324279.3.4 linecode=50_2 length=0.01202 units=km
New Line.RBT_319982 phases=4 bus1=BT32361.1.2.3.4 bus2=UC319982.1.2.3.4 linecode=51_4 length=0.024 units=km
New Line.RBT_318738 phases=2 bus1=BT32421.2.4 bus2=UC318738.2.4 linecode=50_2 length=0.019 units=km
New Line.RBT_319976 phases=4 bus1=BT32471.1.2.3.4 bus2=UC319976.1.2.3.4 linecode=51_4 length=0.015 units=km
New Line.RBT_317447 phases=2 bus1=BT32411.2.4 bus2=UC317447.2.4 linecode=50_2 length=0.016 units=km
New Line.RBT_312634 phases=4 bus1=BT32341.1.2.3.4 bus2=UC312634.1.2.3.4 linecode=51_4 length=0.023 units=km
New Line.RBT_330874 phases=3 bus1=BT710191.1.2.4 bus2=UC330874.1.2.4 linecode=83_3 length=0.01632 units=km
New Line.RBT_330560 phases=2 bus1=BT656511.1.4 bus2=UC330560.1.4 linecode=50_2 length=0.008 units=km
New Line.RBT_329903 phases=2 bus1=BT32451.3.4 bus2=UC329903.3.4 linecode=50_2 length=0.014 units=km
New Line.RBT_330414 phases=2 bus1=BT109411.3.4 bus2=UC330414.3.4 linecode=50_2 length=0.009 units=km
New Line.RBT_312402 phases=4 bus1=BT32371.1.2.3.4 bus2=UC312402.1.2.3.4 linecode=51_4 length=0.025 units=km
New Line.RBT_312556 phases=2 bus1=BT32481.1.4 bus2=UC312556.1.4 linecode=50_2 length=0.01 units=km
New Line.RBT_311703 phases=4 bus1=BT32391.1.2.3.4 bus2=UC311703.1.2.3.4 linecode=51_4 length=0.028 units=km
New Line.RBT_330163 phases=2 bus1=BT144081.1.4 bus2=UC330163.1.4 linecode=50_2 length=0.01409 units=km
New Line.RBT_330767 phases=2 bus1=BT133711.3.4 bus2=UC330767.3.4 linecode=50_2 length=0.00314 units=km
New Line.RBT_330769 phases=2 bus1=BT144091.1.4 bus2=UC330769.1.4 linecode=50_2 length=0.01271 units=km
New Line.RBT_330770 phases=3 bus1=BT125001.2.3.4 bus2=UC330770.2.3.4 linecode=83_3 length=0.005 units=km
New Line.RBT_330942 phases=2 bus1=BT144081.2.4 bus2=UC330942.2.4 linecode=105_2 length=0.004 units=km
New Line.RBT_330950 phases=2 bus1=BT145001.2.4 bus2=UC330950.2.4 linecode=50_2 length=0.0007 units=km
New Line.RBT_331069 phases=3 bus1=BT144071.2.3.4 bus2=UC331069.2.3.4 linecode=83_3 length=0.00071 units=km
New Line.RBT_331072 phases=2 bus1=BT144081.3.4 bus2=UC331072.3.4 linecode=108_2 length=0.00351 units=km
New Line.RBT_328903 phases=2 bus1=BT143921.1.4 bus2=UC328903.1.4 linecode=50_2 length=0.00239 units=km
New Line.RBT_329622 phases=2 bus1=BT144101.3.4 bus2=UC329622.3.4 linecode=50_2 length=0.00662 units=km
New Line.RBT_329277 phases=2 bus1=BT125021.3.4 bus2=UC329277.3.4 linecode=105_2 length=0.015 units=km
New Line.RBT_328344 phases=2 bus1=BT125021.1.4 bus2=UC328344.1.4 linecode=50_2 length=0.00415 units=km
New Line.RBT_327860 phases=2 bus1=BT125011.1.4 bus2=UC327860.1.4 linecode=50_2 length=0.00176 units=km
New Line.RBT_327869 phases=2 bus1=BT143911.2.4 bus2=UC327869.2.4 linecode=50_2 length=0.01425 units=km
New Line.RBT_327870 phases=2 bus1=BT125011.1.4 bus2=UC327870.1.4 linecode=50_2 length=0.00371 units=km
New Line.RBT_312661 phases=2 bus1=BT125011.3.4 bus2=UC312661.3.4 linecode=105_2 length=0.017 units=km
New Line.RBT_317410 phases=2 bus1=BT144981.1.4 bus2=UC317410.1.4 linecode=50_2 length=0.00686 units=km
New Line.RBT_318488 phases=2 bus1=BT144981.3.4 bus2=UC318488.3.4 linecode=50_2 length=0.00331 units=km
New Line.RBT_327253 phases=2 bus1=BT143911.3.4 bus2=UC327253.3.4 linecode=50_2 length=0.01027 units=km
New Line.RBT_326743 phases=2 bus1=BT133581.1.4 bus2=UC326743.1.4 linecode=105_2 length=0.013 units=km
New Line.RBT_325726 phases=2 bus1=BT125011.2.4 bus2=UC325726.2.4 linecode=108_2 length=0.0055 units=km
New Line.RBT_325727 phases=2 bus1=BT143911.1.4 bus2=UC325727.1.4 linecode=105_2 length=0.017 units=km
New Line.RBT_336668 phases=3 bus1=BT149951.1.2.4 bus2=UC336668.1.2.4 linecode=148_P_3 length=0.015 units=km
New Line.RBT_337187 phases=3 bus1=BT149951.1.2.4 bus2=UC337187.1.2.4 linecode=83_3 length=0.01 units=km
New Line.RBT_337451 phases=3 bus1=BT149951.1.2.4 bus2=UC337451.1.2.4 linecode=83_3 length=0.005 units=km
New Line.RBT_338651 phases=3 bus1=BT149951.1.2.4 bus2=UC338651.1.2.4 linecode=148_3 length=0.005 units=km
New Line.RBT_338652 phases=3 bus1=BT149951.2.3.4 bus2=UC338652.2.3.4 linecode=83_P_3 length=0.005 units=km