New Line.RBT_101453 phases=2 bus1=BT294681.1.4 bus2=UC101453.1.4 linecode=108_2 length=0.015 units=km
New Line.RBT_101460 phases=2 bus1=BT445251.1.4 bus2=UC101460.1.4 linecode=50_2 length=0.03 units=km
New Line.RBT_103753 phases=2 bus1=BT242391.2.4 bus2=UC103753.2.4 linecode=108_2 length=0.017 units=km
New Line.RBT_103754 phases=4 bus1=BT242411.1.2.3.4 bus2=UC103754.1.2.3.4 linecode=51_4 length=0.01629 units=km
New Line.RBT_103755 phases=4 bus1=BT242381.1.2.3.4 bus2=UC103755.1.2.3.4 linecode=51_4 length=0.03 units=km
New Line.RBT_103757 phases=4 bus1=BT445251.1.2.3.4 bus2=UC103757.1.2.3.4 linecode=51_4 length=0.017 units=km
New Line.RBT_103758 phases=4 bus1=BT298291.1.2.3.4 bus2=UC103758.1.2.3.4 linecode=51_4 length=0.016 units=km
New Line.RBT_103759 phases=4 bus1=BT294681.1.2.3.4 bus2=UC103759.1.2.3.4 linecode=51_4 length=0.018 units=km
New Line.RBT_103760 phases=2 bus1=BT298291.2.4 bus2=UC103760.2.4 linecode=50_2 length=0.02 units=km
New Line.RBT_103776 phases=2 bus1=BT298291.2.4 bus2=UC103776.2.4 linecode=50_2 length=0.03 units=km
New Line.RBT_103777 phases=2 bus1=BT298291.2.4 bus2=UC103777.2.4 linecode=50_2 length=0.014 units=km
New Line.RBT_103778 phases=2 bus1=ET1_1211.3.4 bus2=UC103778.3.4 linecode=50_2 length=0.012 units=km
New Line.RBT_103794 phases=2 bus1=BT242371.3.4 bus2=UC103794.3.4 linecode=105_2 length=0.005 units=km
New Line.RBT_103795 phases=2 bus1=BT109671.2.4 bus2=UC103795.2.4 linecode=105_2 length=0.017 units=km
New Line.RBT_103797 phases=2 bus1=BT298341.1.4 bus2=UC103797.1.4 linecode=50_2 length=0.017 units=km
New Line.RBT_103799 phases=2 bus1=ET1_1211.1.4 bus2=UC103799.1.4 linecode=50_2 length=0.024 units=km
New Line.RBT_103800 phases=2 bus1=BT298341.3.4 bus2=UC103800.3.4 linecode=50_2 length=0.007 units=km
New Line.RBT_103817 phases=4 bus1=BT242411.1.2.3.4 bus2=UC103817.1.2.3.4 linecode=51_4 length=0.004 units=km
New Line.RBT_103877 phases=4 bus1=BT242401.1.2.3.4 bus2=UC103877.1.2.3.4 linecode=51_4 length=0.002 units=km
New Line.RBT_117176 phases=2 bus1=BT242411.3.4 bus2=UC117176.3.4 linecode=108_2 length=0.004 units=km
New Line.RBT_119444 phases=4 bus1=BT298291.1.2.3.4 bus2=UC119444.1.2.3.4 linecode=109_4 length=0.025 units=km
New Line.RBT_121271 phases=2 bus1=BT294621.2.4 bus2=UC121271.2.4 linecode=50_2 length=0.007 units=km
New Line.RBT_121834 phases=4 bus1=BT294681.1.2.3.4 bus2=UC121834.1.2.3.4 linecode=51_4 length=0.014 units=km
New Line.RBT_122291 phases=3 bus1=BT294681.3.1.4 bus2=UC122291.3.1.4 linecode=110_3 length=0.012 units=km
New Line.RBT_123107 phases=3 bus1=BT298341.1.2.4 bus2=UC123107.1.2.4 linecode=83_3 length=0.015 units=km
New Line.RBT_123518 phases=2 bus1=BT661681.1.4 bus2=UC123518.1.4 linecode=50_2 length=0.006 units=km
New Line.RBT_124079 phases=2 bus1=BT445251.1.4 bus2=UC124079.1.4 linecode=50_2 length=0.00929 units=km
New Line.RBT_124795 phases=2 bus1=BT294681.3.4 bus2=UC124795.3.4 linecode=50_2 length=0.016 units=km
New Line.RBT_125063 phases=2 bus1=BT294681.2.4 bus2=UC125063.2.4 linecode=105_2 length=0.005 units=km
New Line.RBT_125752 phases=4 bus1=ET1_1211.1.2.3.4 bus2=UC125752.1.2.3.4 linecode=51_4 length=0.019 units=km
New Line.RBT_125761 phases=2 bus1=ET1_1211.1.4 bus2=UC125761.1.4 linecode=50_2 length=0.016 units=km
New Line.RBT_126102 phases=4 bus1=BT109671.1.2.3.4 bus2=UC126102.1.2.3.4 linecode=51_4 length=0.01616 units=km
New Line.RBT_126504 phases=4 bus1=BT294681.1.2.3.4 bus2=UC126504.1.2.3.4 linecode=51_4 length=0.001 units=km
New Line.RBT_126659 phases=4 bus1=BT242411.1.2.3.4 bus2=UC126659.1.2.3.4 linecode=51_4 length=0.03 units=km
New Line.RBT_126845 phases=4 bus1=BT298311.1.2.3.4 bus2=UC126845.1.2.3.4 linecode=109_4 length=0.005 units=km
New Line.RBT_127723 phases=2 bus1=BT562431.1.4 bus2=UC127723.1.4 linecode=50_2 length=0.019 units=km
New Line.RBT_128275 phases=4 bus1=BT376081.1.2.3.4 bus2=UC128275.1.2.3.4 linecode=51_4 length=0.007 units=km
New Line.RBT_128452 phases=3 bus1=ET1_1211.1.2.4 bus2=UC128452.1.2.4 linecode=83_3 length=0.011 units=km
New Line.RBT_129044 phases=2 bus1=BT588501.1.4 bus2=UC129044.1.4 linecode=50_2 length=0.005 units=km
New Line.RBT_129111 phases=2 bus1=BT562411.1.4 bus2=UC129111.1.4 linecode=50_2 length=0.011 units=km
New Line.RBT_129329 phases=2 bus1=BT109671.3.4 bus2=UC129329.3.4 linecode=50_2 length=0.006 units=km
New Line.RBT_130128 phases=2 bus1=BT242411.2.4 bus2=UC130128.2.4 linecode=50_2 length=0.03 units=km
New Line.RBT_130470 phases=4 bus1=BT585411.1.2.3.4 bus2=UC130470.1.2.3.4 linecode=51_4 length=0.00343 units=km
New Line.RBT_130510 phases=4 bus1=BT242391.1.2.3.4 bus2=UC130510.1.2.3.4 linecode=51_4 length=0.011 units=km
New Line.RBT_130583 phases=2 bus1=BT109671.3.4 bus2=UC130583.3.4 linecode=50_2 length=0.00553 units=km
New Line.RBT_131282 phases=2 bus1=BT562421.1.4 bus2=UC131282.1.4 linecode=50_2 length=0.00982 units=km
New Line.RBT_131291 phases=2 bus1=BT242381.1.4 bus2=UC131291.1.4 linecode=50_2 length=0.0193 units=km
New Line.RBT_131327 phases=4 bus1=BT242391.1.2.3.4 bus2=UC131327.1.2.3.4 linecode=51_4 length=0.00775 units=km
New Line.RBT_131526 phases=4 bus1=BT242401.1.2.3.4 bus2=UC131526.1.2.3.4 linecode=51_4 length=0.015 units=km
New Line.RBT_131749 phases=4 bus1=BT242391.1.2.3.4 bus2=UC131749.1.2.3.4 linecode=51_4 length=0.00596 units=km
New Line.RBT_131892 phases=4 bus1=BT242391.1.2.3.4 bus2=UC131892.1.2.3.4 linecode=51_4 length=0.006 units=km
New Line.RBT_133203 phases=4 bus1=BT298291.1.2.3.4 bus2=UC133203.1.2.3.4 linecode=51_4 length=0.00661 units=km
New Line.RBT_133310 phases=4 bus1=BT596341.1.2.3.4 bus2=UC133310.1.2.3.4 linecode=51_4 length=0.00661 units=km
New Line.RBT_133475 phases=4 bus1=BT703971.1.2.3.4 bus2=UC133475.1.2.3.4 linecode=51_4 length=0.00987 units=km
New Line.RBT_133476 phases=2 bus1=BT242411.3.4 bus2=UC133476.3.4 linecode=50_2 length=0.0149 units=km
New Line.RBT_133545 phases=2 bus1=BT298291.1.4 bus2=UC133545.1.4 linecode=108_2 length=0.025 units=km
New Line.RBT_133756 phases=4 bus1=BT294681.1.2.3.4 bus2=UC133756.1.2.3.4 linecode=51_4 length=0.01259 units=km
New Line.RBT_134407 phases=2 bus1=BT109671.2.4 bus2=UC134407.2.4 linecode=108_2 length=0.015 units=km
New Line.RBT_134691 phases=4 bus1=BT562411.1.2.3.4 bus2=UC134691.1.2.3.4 linecode=51_4 length=0.02093 units=km
New Line.RBT_134916 phases=2 bus1=BT661681.2.4 bus2=UC134916.2.4 linecode=50_2 length=0.00761 units=km
New Line.RBT_135378 phases=4 bus1=BT588501.1.2.3.4 bus2=UC135378.1.2.3.4 linecode=51_4 length=0.023 units=km
New Line.RBT_135895 phases=4 bus1=BT242381.1.2.3.4 bus2=UC135895.1.2.3.4 linecode=109_4 length=0.017 units=km
New Line.RBT_136039 phases=2 bus1=BT294681.3.4 bus2=UC136039.3.4 linecode=108_2 length=0.02 units=km
New Line.RBT_138278 phases=4 bus1=BT445251.1.2.3.4 bus2=UC138278.1.2.3.4 linecode=51_4 length=0.017 units=km
New Line.RBT_138771 phases=3 bus1=BT298291.2.3.4 bus2=UC138771.2.3.4 linecode=83_3 length=0.025 units=km
New Line.RBT_138779 phases=4 bus1=BT376081.1.2.3.4 bus2=UC138779.1.2.3.4 linecode=51_4 length=0.005 units=km
New Line.RBT_138449 phases=2 bus1=BT239031.2.4 bus2=UC138449.2.4 linecode=50_2 length=0.01 units=km
New Line.RBT_137557 phases=2 bus1=BT239041.3.4 bus2=UC137557.3.4 linecode=105_2 length=0.03 units=km
New Line.RBT_137560 phases=3 bus1=BT583012.1.2.4 bus2=UC137560.1.2.4 linecode=83_3 length=0.03 units=km
New Line.RBT_137899 phases=2 bus1=BT804491.1.4 bus2=UC137899.1.4 linecode=105_2 length=0.03 units=km
New Line.RBT_135894 phases=4 bus1=BT804491.1.2.3.4 bus2=UC135894.1.2.3.4 linecode=51_4 length=0.03 units=km
New Line.RBT_134918 phases=2 bus1=BT239011.2.4 bus2=UC134918.2.4 linecode=50_2 length=0.01484 units=km
New Line.RBT_134864 phases=2 bus1=BT239051.3.4 bus2=UC134864.3.4 linecode=50_2 length=0.01384 units=km
New Line.RBT_130892 phases=4 bus1=BT260341.1.2.3.4 bus2=UC130892.1.2.3.4 linecode=51_4 length=0.028 units=km
New Line.RBT_128288 phases=2 bus1=BT804491.1.4 bus2=UC128288.1.4 linecode=50_2 length=0.01178 units=km
New Line.RBT_124891 phases=2 bus1=BT550731.2.4 bus2=UC124891.2.4 linecode=105_2 length=0.027 units=km
New Line.RBT_104071 phases=2 bus1=BT229831.1.4 bus2=UC104071.1.4 linecode=50_2 length=0.01492 units=km
New Line.RBT_101478 phases=2 bus1=BT239031.2.4 bus2=UC101478.2.4 linecode=50_2 length=0.01986 units=km
New Line.RBT_101934 phases=4 bus1=BT550731.1.2.3.4 bus2=UC101934.1.2.3.4 linecode=51_4 length=0.01573 units=km
New Line.RBT_101936 phases=2 bus1=BT621541.1.4 bus2=UC101936.1.4 linecode=50_2 length=0.00449 units=km
New Line.RBT_101937 phases=4 bus1=BT804471.1.2.3.4 bus2=UC101937.1.2.3.4 linecode=51_4 length=0.03 units=km
New Line.RBT_103059 phases=2 bus1=BT229841.1.4 bus2=UC103059.1.4 linecode=50_2 length=0.00821 units=km
New Line.RBT_104058 phases=2 bus1=BT258441.3.4 bus2=UC104058.3.4 linecode=50_2 length=0.00335 units=km
New Line.RBT_103952 phases=2 bus1=BT258451.2.4 bus2=UC103952.2.4 linecode=50_2 length=0.004 units=km
New Line.RBT_103835 phases=4 bus1=BT258451.1.2.3.4 bus2=UC103835.1.2.3.4 linecode=51_4 length=0.016 units=km
New Line.RBT_121210 phases=4 bus1=ET1_1300.1.2.3.4 bus2=UC121210.1.2.3.4 linecode=51_4 length=0.0222 units=km
New Line.RBT_126182 phases=2 bus1=ET1_1300.1.4 bus2=UC126182.1.4 linecode=50_2 length=0.006 units=km
New Line.RBT_128800 phases=2 bus1=BT258441.2.4 bus2=UC128800.2.4 linecode=50_2 length=0.005 units=km
New Line.RBT_137876 phases=2 bus1=ET1_1300.3.4 bus2=UC137876.3.4 linecode=105_2 length=0.012 units=km
New Line.RBT_128697 phases=4 bus1=BT225951.1.2.3.4 bus2=UC128697.1.2.3.4 linecode=51_4 length=0.02667 units=km
New Line.RBT_103938 phases=4 bus1=BT225921.1.2.3.4 bus2=UC103938.1.2.3.4 linecode=51_4 length=0.0105 units=km
New Line.RBT_103939 phases=4 bus1=BT225901.1.2.3.4 bus2=UC103939.1.2.3.4 linecode=51_4 length=0.02273 units=km
New Line.RBT_103932 phases=4 bus1=BT225942.1.2.3.4 bus2=UC103932.1.2.3.4 linecode=51_4 length=0.00595 units=km
New Line.RBT_103933 phases=4 bus1=BT225961.1.2.3.4 bus2=UC103933.1.2.3.4 linecode=51_4 length=0.01131 units=km
New Line.RBT_120584 phases=2 bus1=BT242441.1.4 bus2=UC120584.1.4 linecode=50_2 length=0.009 units=km
New Line.RBT_119558 phases=2 bus1=BT668811.3.4 bus2=UC119558.3.4 linecode=50_2 length=0.01141 units=km
New Line.RBT_119722 phases=2 bus1=BT377361.1.4 bus2=UC119722.1.4 linecode=50_2 length=0.00871 units=km
New Line.RBT_117392 phases=4 bus1=ET1_1520.1.2.3.4 bus2=UC117392.1.2.3.4 linecode=51_4 length=0.00413 units=km
New Line.RBT_102204 phases=2 bus1=BT262471.3.4 bus2=UC102204.3.4 linecode=108_2 length=0.016 units=km
New Line.RBT_102311 phases=2 bus1=BT242441.1.4 bus2=UC102311.1.4 linecode=50_2 length=0.003 units=km
New Line.RBT_102312 phases=2 bus1=ET1_1520.1.4 bus2=UC102312.1.4 linecode=108_2 length=0.013 units=km
New Line.RBT_102315 phases=4 bus1=BT250761.1.2.3.4 bus2=UC102315.1.2.3.4 linecode=51_4 length=0.008 units=km
New Line.RBT_102319 phases=2 bus1=BT377361.1.4 bus2=UC102319.1.4 linecode=108_2 length=0.00862 units=km
New Line.RBT_102320 phases=2 bus1=BT377461.2.4 bus2=UC102320.2.4 linecode=50_2 length=0.0117 units=km
New Line.RBT_102321 phases=2 bus1=BT377461.3.4 bus2=UC102321.3.4 linecode=105_2 length=0.003 units=km
New Line.RBT_102322 phases=2 bus1=BT377471.2.4 bus2=UC102322.2.4 linecode=105_2 length=0.01 units=km
New Line.RBT_102323 phases=2 bus1=BT377471.1.4 bus2=UC102323.1.4 linecode=105_2 length=0.007 units=km
New Line.RBT_102324 phases=2 bus1=BT377471.1.4 bus2=UC102324.1.4 linecode=50_2 length=0.00891 units=km
New Line.RBT_102325 phases=2 bus1=BT377471.3.4 bus2=UC102325.3.4 linecode=50_2 length=0.00907 units=km
New Line.RBT_102326 phases=2 bus1=BT377461.2.4 bus2=UC102326.2.4 linecode=50_2 length=0.00317 units=km
New Line.RBT_102327 phases=2 bus1=BT377461.1.4 bus2=UC102327.1.4 linecode=105_2 length=0.016 units=km
New Line.RBT_127727 phases=2 bus1=BT668811.1.4 bus2=UC127727.1.4 linecode=50_2 length=0.015 units=km
New Line.RBT_128883 phases=2 bus1=BT668811.2.4 bus2=UC128883.2.4 linecode=50_2 length=0.00634 units=km
New Line.RBT_126097 phases=2 bus1=BT377361.2.4 bus2=UC126097.2.4 linecode=108_2 length=0.005 units=km
New Line.RBT_126083 phases=4 bus1=BT262461.1.2.3.4 bus2=UC126083.1.2.3.4 linecode=51_4 length=0.002 units=km
New Line.RBT_123112 phases=2 bus1=BT377471.1.4 bus2=UC123112.1.4 linecode=108_2 length=0.00954 units=km
New Line.RBT_130800 phases=2 bus1=BT377461.2.4 bus2=UC130800.2.4 linecode=50_2 length=0.01246 units=km
New Line.RBT_130383 phases=2 bus1=BT668821.2.4 bus2=UC130383.2.4 linecode=50_2 length=0.00306 units=km
New Line.RBT_130076 phases=4 bus1=BT262471.1.2.3.4 bus2=UC130076.1.2.3.4 linecode=51_4 length=0.021 units=km
New Line.RBT_134238 phases=2 bus1=BT377461.2.4 bus2=UC134238.2.4 linecode=50_2 length=0.00806 units=km
New Line.RBT_138177 phases=4 bus1=ET1_1520.1.2.3.4 bus2=UC138177.1.2.3.4 linecode=123_4 length=0.005 units=km
New Line.RBT_136050 phases=3 bus1=BT668821.1.2.4 bus2=UC136050.1.2.4 linecode=148_P_3 length=0.015 units=km
New Line.RBT_132876 phases=4 bus1=BT236761.1.2.3.4 bus2=UC132876.1.2.3.4 linecode=51_4 length=0.01757 units=km
New Line.RBT_124520 phases=4 bus1=BT264321.1.2.3.4 bus2=UC124520.1.2.3.4 linecode=109_4 length=0.021 units=km
New Line.RBT_127967 phases=4 bus1=BT236581.1.2.3.4 bus2=UC127967.1.2.3.4 linecode=51_4 length=0.028 units=km
New Line.RBT_127614 phases=4 bus1=BT264351.1.2.3.4 bus2=UC127614.1.2.3.4 linecode=51_4 length=0.02024 units=km
New Line.RBT_102485 phases=4 bus1=BT805901.1.2.3.4 bus2=UC102485.1.2.3.4 linecode=51_4 length=0.021 units=km
New Line.RBT_115335 phases=2 bus1=BT236581.3.4 bus2=UC115335.3.4 linecode=108_2 length=0.00661 units=km
New Line.RBT_117139 phases=2 bus1=BT255421.1.4 bus2=UC117139.1.4 linecode=50_2 length=0.004 units=km
New Line.RBT_117174 phases=2 bus1=BT219341.1.4 bus2=UC117174.1.4 linecode=50_2 length=0.00686 units=km
New Line.RBT_103931 phases=4 bus1=BT200641.1.2.3.4 bus2=UC103931.1.2.3.4 linecode=51_4 length=0.001 units=km
New Line.RBT_103879 phases=2 bus1=BT792871.2.4 bus2=UC103879.2.4 linecode=108_2 length=0.00487 units=km
New Line.RBT_117386 phases=2 bus1=BT219281.3.4 bus2=UC117386.3.4 linecode=50_2 length=0.008 units=km
New Line.RBT_119017 phases=2 bus1=BT255431.1.4 bus2=UC119017.1.4 linecode=108_2 length=0.004 units=km
New Line.RBT_120796 phases=4 bus1=BT219351.1.2.3.4 bus2=UC120796.1.2.3.4 linecode=51_4 length=0.00214 units=km
New Line.RBT_120789 phases=2 bus1=BT595201.1.4 bus2=UC120789.1.4 linecode=50_2 length=0.00682 units=km
New Line.RBT_121844 phases=2 bus1=BT219341.3.4 bus2=UC121844.3.4 linecode=50_2 length=0.00537 units=km
New Line.RBT_102347 phases=2 bus1=BT292432.3.4 bus2=UC102347.3.4 linecode=50_2 length=0.00054 units=km
New Line.RBT_102349 phases=2 bus1=BT219341.2.4 bus2=UC102349.2.4 linecode=50_2 length=0.00743 units=km
New Line.RBT_102351 phases=2 bus1=BT219351.1.4 bus2=UC102351.1.4 linecode=50_2 length=0.01615 units=km
New Line.RBT_102353 phases=2 bus1=BT255411.2.4 bus2=UC102353.2.4 linecode=50_2 length=0.017 units=km
New Line.RBT_102354 phases=2 bus1=BT263511.2.4 bus2=UC102354.2.4 linecode=50_2 length=0.01 units=km
New Line.RBT_102355 phases=2 bus1=BT263511.1.4 bus2=UC102355.1.4 linecode=50_2 length=0.008 units=km
New Line.RBT_102356 phases=2 bus1=BT255401.1.4 bus2=UC102356.1.4 linecode=105_2 length=0.006 units=km
New Line.RBT_102357 phases=2 bus1=BT255401.2.4 bus2=UC102357.2.4 linecode=50_2 length=0.00626 units=km
New Line.RBT_102359 phases=4 bus1=BT255431.1.2.3.4 bus2=UC102359.1.2.3.4 linecode=51_4 length=0.013 units=km
New Line.RBT_102360 phases=2 bus1=BT255431.1.4 bus2=UC102360.1.4 linecode=108_2 length=0.019 units=km
New Line.RBT_102361 phases=4 bus1=BT255441.1.2.3.4 bus2=UC102361.1.2.3.4 linecode=51_4 length=0.025 units=km
New Line.RBT_102362 phases=2 bus1=BT255441.2.4 bus2=UC102362.2.4 linecode=50_2 length=0.014 units=km
New Line.RBT_102363 phases=2 bus1=BT255441.2.4 bus2=UC102363.2.4 linecode=50_2 length=0.002 units=km
New Line.RBT_102364 phases=4 bus1=BT255441.1.2.3.4 bus2=UC102364.1.2.3.4 linecode=51_4 length=0.013 units=km
New Line.RBT_102365 phases=2 bus1=BT219281.3.4 bus2=UC102365.3.4 linecode=50_2 length=0.014 units=km
New Line.RBT_102367 phases=2 bus1=BT219291.2.4 bus2=UC102367.2.4 linecode=50_2 length=0.00608 units=km
New Line.RBT_102368 phases=4 bus1=BT219291.1.2.3.4 bus2=UC102368.1.2.3.4 linecode=109_4 length=0.015 units=km
New Line.RBT_102369 phases=2 bus1=BT792871.3.4 bus2=UC102369.3.4 linecode=50_2 length=0.0205 units=km
New Line.RBT_102371 phases=2 bus1=BT219351.3.4 bus2=UC102371.3.4 linecode=50_2 length=0.003 units=km
New Line.RBT_102372 phases=2 bus1=BT255431.2.4 bus2=UC102372.2.4 linecode=105_2 length=0.02 units=km
New Line.RBT_102336 phases=2 bus1=BT668741.3.4 bus2=UC102336.3.4 linecode=105_2 length=0.007 units=km
New Line.RBT_102337 phases=2 bus1=BT292432.3.4 bus2=UC102337.3.4 linecode=108_2 length=0.01742 units=km
New Line.RBT_102254 phases=2 bus1=BT292791.2.4 bus2=UC102254.2.4 linecode=50_2 length=0.002 units=km
New Line.RBT_101956 phases=2 bus1=BT274632.2.4 bus2=UC101956.2.4 linecode=50_2 length=0.00681 units=km
New Line.RBT_101994 phases=2 bus1=BT610331.3.4 bus2=UC101994.3.4 linecode=50_2 length=0.02206 units=km
New Line.RBT_101995 phases=4 bus1=BT219291.1.2.3.4 bus2=UC101995.1.2.3.4 linecode=51_4 length=0.015 units=km
New Line.RBT_101996 phases=2 bus1=BT219281.3.4 bus2=UC101996.3.4 linecode=50_2 length=0.017 units=km
New Line.RBT_101998 phases=2 bus1=BT219281.3.4 bus2=UC101998.3.4 linecode=105_2 length=0.007 units=km
New Line.RBT_102944 phases=4 bus1=BT255401.1.2.3.4 bus2=UC102944.1.2.3.4 linecode=51_4 length=0.013 units=km
New Line.RBT_102399 phases=2 bus1=BT595201.1.4 bus2=UC102399.1.4 linecode=108_2 length=0.00253 units=km
New Line.RBT_128611 phases=2 bus1=BT219281.2.4 bus2=UC128611.2.4 linecode=105_2 length=0.007 units=km
New Line.RBT_128561 phases=2 bus1=BT595221.2.4 bus2=UC128561.2.4 linecode=50_2 length=0.01913 units=km
New Line.RBT_128890 phases=2 bus1=BT274632.1.4 bus2=UC128890.1.4 linecode=50_2 length=0.00115 units=km
New Line.RBT_129036 phases=2 bus1=BT292791.2.4 bus2=UC129036.2.4 linecode=50_2 length=0.001 units=km
New Line.RBT_129250 phases=2 bus1=BT595201.1.4 bus2=UC129250.1.4 linecode=50_2 length=0.01149 units=km
New Line.RBT_129410 phases=2 bus1=BT219291.2.4 bus2=UC129410.2.4 linecode=108_2 length=0.01377 units=km
New Line.RBT_129811 phases=4 bus1=BT255421.1.2.3.4 bus2=UC129811.1.2.3.4 linecode=51_4 length=0.00436 units=km
New Line.RBT_125330 phases=4 bus1=BT255411.1.2.3.4 bus2=UC125330.1.2.3.4 linecode=51_4 length=0.003 units=km
New Line.RBT_122297 phases=2 bus1=BT255431.2.4 bus2=UC122297.2.4 linecode=108_2 length=0.019 units=km
New Line.RBT_122727 phases=2 bus1=BT255431.1.4 bus2=UC122727.1.4 linecode=50_2 length=0.004 units=km
New Line.RBT_126177 phases=2 bus1=BT595231.3.4 bus2=UC126177.3.4 linecode=50_2 length=0.0026 units=km
New Line.RBT_126661 phases=2 bus1=ET1_1575.2.4 bus2=UC126661.2.4 linecode=108_2 length=0.01009 units=km
New Line.RBT_126992 phases=2 bus1=BT292801.2.4 bus2=UC126992.2.4 linecode=50_2 length=0.002 units=km
New Line.RBT_126573 phases=2 bus1=BT255431.3.4 bus2=UC126573.3.4 linecode=50_2 length=0.006 units=km
New Line.RBT_133686 phases=2 bus1=BT274641.2.4 bus2=UC133686.2.4 linecode=50_2 length=0.01374 units=km
New Line.RBT_133336 phases=4 bus1=BT610331.1.2.3.4 bus2=UC133336.1.2.3.4 linecode=51_4 length=0.00625 units=km
New Line.RBT_134818 phases=2 bus1=BT595231.3.4 bus2=UC134818.3.4 linecode=50_2 length=0.01052 units=km
New Line.RBT_130296 phases=2 bus1=BT595201.1.4 bus2=UC130296.1.4 linecode=50_2 length=0.01537 units=km
New Line.RBT_130506 phases=4 bus1=BT274632.1.2.3.4 bus2=UC130506.1.2.3.4 linecode=95_4 length=0.016 units=km
New Line.RBT_130701 phases=3 bus1=BT255421.1.2.4 bus2=UC130701.1.2.4 linecode=83_3 length=0.01514 units=km
New Line.RBT_132162 phases=2 bus1=BT255431.2.4 bus2=UC132162.2.4 linecode=108_2 length=0.00797 units=km
New Line.RBT_132213 phases=2 bus1=BT219291.1.4 bus2=UC132213.1.4 linecode=50_2 length=0.0249 units=km
New Line.RBT_132537 phases=2 bus1=BT610331.1.4 bus2=UC132537.1.4 linecode=50_2 length=0.03 units=km
New Line.RBT_131227 phases=4 bus1=BT219281.1.2.3.4 bus2=UC131227.1.2.3.4 linecode=51_4 length=0.02063 units=km
New Line.RBT_131285 phases=2 bus1=BT219291.1.4 bus2=UC131285.1.4 linecode=105_2 length=0.004 units=km
New Line.RBT_136952 phases=2 bus1=BT778961.3.4 bus2=UC136952.3.4 linecode=105_2 length=0.005 units=km
New Line.RBT_138075 phases=2 bus1=BT610331.1.4 bus2=UC138075.1.4 linecode=105_2 length=0.014 units=km
New Line.RBT_138166 phases=4 bus1=BT767011.1.2.3.4 bus2=UC138166.1.2.3.4 linecode=123_P_4 length=0.015 units=km
New Line.RBT_138345 phases=4 bus1=BT767011.1.2.3.4 bus2=UC138345.1.2.3.4 linecode=123_P_4 length=0.005 units=km
New Line.RBT_138348 phases=4 bus1=BT767011.1.2.3.4 bus2=UC138348.1.2.3.4 linecode=123_P_4 length=0.005 units=km
New Line.RBT_137689 phases=2 bus1=BT278121.1.4 bus2=UC137689.1.4 linecode=105_P_2 length=0.03 units=km
New Line.RBT_134866 phases=2 bus1=BT246991.3.4 bus2=UC134866.3.4 linecode=50_2 length=0.00827 units=km
New Line.RBT_134292 phases=3 bus1=BT247011.2.3.4 bus2=UC134292.2.3.4 linecode=83_3 length=0.00845 units=km
New Line.RBT_134294 phases=4 bus1=BT247011.1.2.3.4 bus2=UC134294.1.2.3.4 linecode=51_4 length=0.00605 units=km
New Line.RBT_135155 phases=4 bus1=BT273581.1.2.3.4 bus2=UC135155.1.2.3.4 linecode=51_4 length=0.02497 units=km
New Line.RBT_132992 phases=4 bus1=ET1_1586.1.2.3.4 bus2=UC132992.1.2.3.4 linecode=51_4 length=0.01102 units=km
New Line.RBT_126589 phases=2 bus1=ET1_1586.1.4 bus2=UC126589.1.4 linecode=108_2 length=0.022 units=km
New Line.RBT_126564 phases=2 bus1=BT247011.1.4 bus2=UC126564.1.4 linecode=50_2 length=0.01183 units=km
New Line.RBT_125547 phases=2 bus1=BT278121.2.4 bus2=UC125547.2.4 linecode=50_2 length=0.00807 units=km
New Line.RBT_123120 phases=4 bus1=BT278121.1.2.3.4 bus2=UC123120.1.2.3.4 linecode=51_4 length=0.014 units=km
New Line.RBT_123400 phases=2 bus1=BT278121.2.4 bus2=UC123400.2.4 linecode=108_2 length=0.018 units=km
New Line.RBT_123792 phases=3 bus1=BT246991.1.2.4 bus2=UC123792.1.2.4 linecode=110_3 length=0.019 units=km
New Line.RBT_127570 phases=2 bus1=BT278121.1.4 bus2=UC127570.1.4 linecode=147_P_2 length=0.007 units=km
New Line.RBT_127571 phases=2 bus1=BT278121.2.4 bus2=UC127571.2.4 linecode=108_2 length=0.012 units=km
New Line.RBT_127957 phases=2 bus1=BT278121.2.4 bus2=UC127957.2.4 linecode=50_2 length=0.01353 units=km
New Line.RBT_128139 phases=4 bus1=BT278121.1.2.3.4 bus2=UC128139.1.2.3.4 linecode=51_4 length=0.012 units=km
New Line.RBT_102386 phases=4 bus1=ET1_1586.1.2.3.4 bus2=UC102386.1.2.3.4 linecode=51_4 length=0.012 units=km
New Line.RBT_102928 phases=4 bus1=ET1_1586.1.2.3.4 bus2=UC102928.1.2.3.4 linecode=51_4 length=0.0055 units=km
New Line.RBT_102064 phases=4 bus1=BT273591.1.2.3.4 bus2=UC102064.1.2.3.4 linecode=51_4 length=0.001 units=km
New Line.RBT_102101 phases=4 bus1=ET1_1586.1.2.3.4 bus2=UC102101.1.2.3.4 linecode=51_4 length=0.00044 units=km
New Line.RBT_102104 phases=4 bus1=ET1_1586.1.2.3.4 bus2=UC102104.1.2.3.4 linecode=51_4 length=0.01037 units=km
New Line.RBT_102106 phases=4 bus1=BT767011.1.2.3.4 bus2=UC102106.1.2.3.4 linecode=123_4 length=0.015 units=km
New Line.RBT_102107 phases=2 bus1=BT767011.3.4 bus2=UC102107.3.4 linecode=50_2 length=0.016 units=km
New Line.RBT_102108 phases=4 bus1=BT246972.1.2.3.4 bus2=UC102108.1.2.3.4 linecode=51_4 length=0.015 units=km
New Line.RBT_102109 phases=3 bus1=BT273581.1.2.4 bus2=UC102109.1.2.4 linecode=83_3 length=0.008 units=km
New Line.RBT_102110 phases=2 bus1=BT273581.1.4 bus2=UC102110.1.4 linecode=50_2 length=0.021 units=km
New Line.RBT_102111 phases=4 bus1=BT246972.1.2.3.4 bus2=UC102111.1.2.3.4 linecode=51_4 length=0.022 units=km
New Line.RBT_102112 phases=4 bus1=BT246972.1.2.3.4 bus2=UC102112.1.2.3.4 linecode=51_4 length=0.024 units=km
New Line.RBT_102113 phases=4 bus1=BT246972.1.2.3.4 bus2=UC102113.1.2.3.4 linecode=109_4 length=0.025 units=km
New Line.RBT_101748 phases=4 bus1=BT247011.1.2.3.4 bus2=UC101748.1.2.3.4 linecode=51_4 length=0.011 units=km
New Line.RBT_101431 phases=2 bus1=ET1_1586.1.4 bus2=UC101431.1.4 linecode=108_2 length=0.001 units=km
New Line.RBT_102134 phases=2 bus1=BT246972.3.4 bus2=UC102134.3.4 linecode=50_2 length=0.00547 units=km
New Line.RBT_102138 phases=4 bus1=BT273581.1.2.3.4 bus2=UC102138.1.2.3.4 linecode=51_P_4 length=0.013 units=km
New Line.RBT_102139 phases=4 bus1=BT273581.1.2.3.4 bus2=UC102139.1.2.3.4 linecode=109_P_4 length=0.00001 units=km
New Line.RBT_102140 phases=4 bus1=BT273591.1.2.3.4 bus2=UC102140.1.2.3.4 linecode=51_4 length=0.004 units=km
New Line.RBT_102142 phases=4 bus1=ET1_1586.1.2.3.4 bus2=UC102142.1.2.3.4 linecode=51_4 length=0.011 units=km
New Line.RBT_102143 phases=2 bus1=BT246991.3.4 bus2=UC102143.3.4 linecode=50_2 length=0.005 units=km
New Line.RBT_120578 phases=4 bus1=BT278121.1.2.3.4 bus2=UC120578.1.2.3.4 linecode=51_4 length=0.022 units=km
New Line.RBT_120579 phases=2 bus1=BT278121.1.4 bus2=UC120579.1.4 linecode=108_2 length=0.012 units=km
New Line.RBT_120581 phases=2 bus1=BT278121.2.4 bus2=UC120581.2.4 linecode=108_2 length=0.015 units=km
New Line.RBT_121390 phases=2 bus1=ET1_1586.1.4 bus2=UC121390.1.4 linecode=50_2 length=0.0121 units=km
New Line.RBT_119736 phases=4 bus1=BT278121.1.2.3.4 bus2=UC119736.1.2.3.4 linecode=51_4 length=0.02 units=km
New Line.RBT_119737 phases=4 bus1=BT278121.1.2.3.4 bus2=UC119737.1.2.3.4 linecode=51_4 length=0.02 units=km
New Line.RBT_103830 phases=2 bus1=BT273581.2.4 bus2=UC103830.2.4 linecode=50_2 length=0.001 units=km
New Line.RBT_103582 phases=2 bus1=BT246991.1.4 bus2=UC103582.1.4 linecode=108_2 length=0.005 units=km
New Line.RBT_103583 phases=2 bus1=BT246991.2.4 bus2=UC103583.2.4 linecode=108_2 length=0.014 units=km
New Line.RBT_103887 phases=2 bus1=BT246991.3.4 bus2=UC103887.3.4 linecode=50_2 length=0.013 units=km
New Line.RBT_103750 phases=2 bus1=BT282032.1.4 bus2=UC103750.1.4 linecode=50_2 length=0.02372 units=km
New Line.RBT_118226 phases=4 bus1=BT282082.1.2.3.4 bus2=UC118226.1.2.3.4 linecode=51_4 length=0.007 units=km
New Line.RBT_102245 phases=2 bus1=BT282032.1.4 bus2=UC102245.1.4 linecode=108_2 length=0.021 units=km
New Line.RBT_102247 phases=2 bus1=BT282032.2.4 bus2=UC102247.2.4 linecode=50_2 length=0.02 units=km
New Line.RBT_102249 phases=2 bus1=BT282032.2.4 bus2=UC102249.2.4 linecode=108_2 length=0.019 units=km
New Line.RBT_102250 phases=4 bus1=BT282032.1.2.3.4 bus2=UC102250.1.2.3.4 linecode=51_4 length=0.028 units=km
New Line.RBT_102252 phases=2 bus1=BT282032.3.4 bus2=UC102252.3.4 linecode=108_2 length=0.022 units=km
New Line.RBT_102880 phases=2 bus1=BT282091.1.4 bus2=UC102880.1.4 linecode=50_2 length=0.01 units=km
New Line.RBT_102881 phases=4 bus1=BT282091.1.2.3.4 bus2=UC102881.1.2.3.4 linecode=51_4 length=0.018 units=km
New Line.RBT_102883 phases=4 bus1=BT282091.1.2.3.4 bus2=UC102883.1.2.3.4 linecode=51_4 length=0.027 units=km
New Line.RBT_102815 phases=4 bus1=BT282032.1.2.3.4 bus2=UC102815.1.2.3.4 linecode=51_4 length=0.024 units=km
New Line.RBT_102868 phases=4 bus1=BT282091.1.2.3.4 bus2=UC102868.1.2.3.4 linecode=109_4 length=0.025 units=km
New Line.RBT_102807 phases=4 bus1=BT282071.1.2.3.4 bus2=UC102807.1.2.3.4 linecode=51_4 length=0.002 units=km
New Line.RBT_102817 phases=4 bus1=BT282032.1.2.3.4 bus2=UC102817.1.2.3.4 linecode=51_4 length=0.024 units=km
New Line.RBT_102818 phases=4 bus1=BT282032.1.2.3.4 bus2=UC102818.1.2.3.4 linecode=51_4 length=0.022 units=km
New Line.RBT_103103 phases=4 bus1=BT281361.1.2.3.4 bus2=UC103103.1.2.3.4 linecode=141_4 length=0.009 units=km
New Line.RBT_128136 phases=2 bus1=BT282071.2.4 bus2=UC128136.2.4 linecode=108_2 length=0.01 units=km
New Line.RBT_128570 phases=3 bus1=BT282032.1.2.4 bus2=UC128570.1.2.4 linecode=83_3 length=0.025 units=km
New Line.RBT_128557 phases=3 bus1=BT282071.1.2.4 bus2=UC128557.1.2.4 linecode=110_3 length=0.005 units=km
New Line.RBT_128274 phases=2 bus1=BT282071.1.4 bus2=UC128274.1.4 linecode=50_2 length=0.01499 units=km
New Line.RBT_129971 phases=4 bus1=BT282071.1.2.3.4 bus2=UC129971.1.2.3.4 linecode=109_4 length=0.015 units=km
New Line.RBT_129361 phases=2 bus1=BT282032.1.4 bus2=UC129361.1.4 linecode=50_2 length=0.02 units=km
New Line.RBT_128876 phases=2 bus1=BT282071.2.4 bus2=UC128876.2.4 linecode=50_2 length=0.007 units=km
New Line.RBT_126980 phases=4 bus1=BT282071.1.2.3.4 bus2=UC126980.1.2.3.4 linecode=51_4 length=0.006 units=km
New Line.RBT_130176 phases=3 bus1=BT282071.1.2.4 bus2=UC130176.1.2.4 linecode=83_3 length=0.002 units=km
New Line.RBT_130469 phases=2 bus1=BT200831.1.4 bus2=UC130469.1.4 linecode=108_2 length=0.025 units=km
New Line.RBT_130545 phases=4 bus1=BT200831.1.2.3.4 bus2=UC130545.1.2.3.4 linecode=51_4 length=0.026 units=km
New Line.RBT_131080 phases=2 bus1=BT200831.1.4 bus2=UC131080.1.4 linecode=50_2 length=0.02082 units=km
New Line.RBT_131671 phases=3 bus1=BT200831.1.2.4 bus2=UC131671.1.2.4 linecode=83_3 length=0.01914 units=km
New Line.RBT_132644 phases=4 bus1=BT262711.1.2.3.4 bus2=UC132644.1.2.3.4 linecode=51_4 length=0.00681 units=km
New Line.RBT_132390 phases=3 bus1=BT200831.1.2.4 bus2=UC132390.1.2.4 linecode=83_3 length=0.00536 units=km
New Line.RBT_131985 phases=2 bus1=BT262621.1.4 bus2=UC131985.1.4 linecode=50_2 length=0.01074 units=km
New Line.RBT_132812 phases=3 bus1=BT200842.1.2.4 bus2=UC132812.1.2.4 linecode=83_3 length=0.00387 units=km
New Line.RBT_126983 phases=4 bus1=BT281871.1.2.3.4 bus2=UC126983.1.2.3.4 linecode=51_4 length=0.001 units=km
New Line.RBT_126583 phases=4 bus1=BT263461.1.2.3.4 bus2=UC126583.1.2.3.4 linecode=51_4 length=0.003 units=km
New Line.RBT_125750 phases=2 bus1=BT262721.1.4 bus2=UC125750.1.4 linecode=108_2 length=0.015 units=km
New Line.RBT_125878 phases=2 bus1=BT262731.1.4 bus2=UC125878.1.4 linecode=105_2 length=0.014 units=km
New Line.RBT_122799 phases=4 bus1=BT281871.1.2.3.4 bus2=UC122799.1.2.3.4 linecode=51_4 length=0.013 units=km
New Line.RBT_128283 phases=2 bus1=BT281881.2.4 bus2=UC128283.2.4 linecode=105_2 length=0.013 units=km
New Line.RBT_128560 phases=2 bus1=BT281881.2.4 bus2=UC128560.2.4 linecode=105_2 length=0.013 units=km
New Line.RBT_127719 phases=4 bus1=BT263481.1.2.3.4 bus2=UC127719.1.2.3.4 linecode=51_4 length=0.013 units=km