New Circuit.9718_9718_1 basekv=23.1 pu=1 bus1=9718_9718_1 r1=0 x1=0.0001
