New Line.SBT_23556 phases=3 bus1=ET13_1372.1.2.4 bus2=BT4821.1.2.4 linecode=44_3 length=0.06684 units=km
New Line.SBT_23557 phases=3 bus1=BT4841.1.2.4 bus2=BT4851.1.2.4 linecode=44_3 length=0.08262 units=km
New Line.SBT_8843 phases=3 bus1=BT4821.1.2.4 bus2=BT4831.1.2.4 linecode=44_3 length=0.06 units=km
New Line.SBT_8844 phases=3 bus1=BT4831.1.2.4 bus2=BT4841.1.2.4 linecode=44_3 length=0.0486 units=km
New Line.SBT_8846 phases=3 bus1=BT19321.1.2.4 bus2=BT19331.1.2.4 linecode=44_3 length=0.10304 units=km
New Line.SBT_23558 phases=3 bus1=BT652551.1.2.4 bus2=BT19321.1.2.4 linecode=44_3 length=0.06607 units=km
New Line.SBT_23534 phases=3 bus1=BT19331.1.2.4 bus2=BT19341.1.2.4 linecode=44_3 length=0.07244 units=km
New Line.SBT_26819 phases=3 bus1=BT621921.1.2.4 bus2=BT621931.1.2.4 linecode=59_3 length=0.08349 units=km
New Line.SBT_14678 phases=3 bus1=ET13_1373.1.2.4 bus2=BT621911.1.2.4 linecode=59_3 length=0.06174 units=km
New Line.SBT_14679 phases=3 bus1=BT621911.1.2.4 bus2=BT621921.1.2.4 linecode=59_3 length=0.0712 units=km
New Line.SBT_14680 phases=3 bus1=BT621931.1.2.4 bus2=BT649391.1.2.4 linecode=59_3 length=0.08945 units=km
New Line.SBT_14687 phases=3 bus1=ET13_1373.1.2.4 bus2=BT652551.1.2.4 linecode=44_3 length=0.02608 units=km
New Line.SBT_18063 phases=3 bus1=BT6601.1.2.4 bus2=BT6592.1.2.4 linecode=44_3 length=0.06665 units=km
New Line.SBT_23535 phases=3 bus1=ET13_1374.1.2.4 bus2=BT6601.1.2.4 linecode=44_3 length=0.08141 units=km
New Line.SBT_23543 phases=3 bus1=BT6601.1.2.4 bus2=BT6611.1.2.4 linecode=44_3 length=0.11007 units=km
New Line.SBT_23544 phases=3 bus1=BT6611.1.2.4 bus2=BT6621.1.2.4 linecode=44_3 length=0.07906 units=km
New Line.SBT_22628 phases=2 bus1=BT336551.2.4 bus2=BT336561.2.4 linecode=62_2 length=0.12554 units=km
New Line.SBT_22629 phases=2 bus1=BT336551.1.4 bus2=BT6631.1.4 linecode=60_2 length=0.16925 units=km
New Line.SBT_22636 phases=2 bus1=BT6631.1.4 bus2=BT6641.1.4 linecode=60_2 length=0.12216 units=km
New Line.SBT_8818 phases=3 bus1=ET13_1374.1.2.4 bus2=BT6661.1.2.4 linecode=96_3 length=0.06301 units=km
New Line.SBT_8819 phases=2 bus1=ET13_1374.1.4 bus2=BT6671.1.4 linecode=60_2 length=0.10302 units=km
New Line.SBT_8820 phases=2 bus1=BT6671.1.4 bus2=BT6681.1.4 linecode=60_2 length=0.08021 units=km
New Line.SBT_7221 phases=3 bus1=BT6621.1.2.4 bus2=BT336551.1.2.4 linecode=44_3 length=0.03324 units=km
New Line.SBT_7222 phases=2 bus1=BT336561.2.4 bus2=BT340291.2.4 linecode=62_2 length=0.13195 units=km
New Line.SBT_5370 phases=3 bus1=ET13_1730.1.2.4 bus2=BT5711.1.2.4 linecode=59_3 length=0.08559 units=km
New Line.SBT_5371 phases=3 bus1=ET13_1730.1.2.4 bus2=BT5751.1.2.4 linecode=59_3 length=0.13721 units=km
New Line.SBT_5917 phases=3 bus1=BT5711.1.2.4 bus2=BT5721.1.2.4 linecode=59_3 length=0.14686 units=km
New Line.SBT_6036 phases=3 bus1=BT5761.1.2.4 bus2=BT5771.1.2.4 linecode=44_3 length=0.09467 units=km
New Line.SBT_6231 phases=3 bus1=BT5751.1.2.4 bus2=BT5761.1.2.4 linecode=44_3 length=0.05334 units=km
New Line.SBT_22056 phases=3 bus1=BT5751.1.2.4 bus2=BT5731.1.2.4 linecode=59_3 length=0.07072 units=km
New Line.SBT_7283 phases=2 bus1=ET13_2236.1.4 bus2=BT302301.1.4 linecode=62_2 length=0.10846 units=km
New Line.SBT_6673 phases=2 bus1=BT366291.2.4 bus2=BT366281.2.4 linecode=62_2 length=0.06093 units=km
New Line.SBT_18296 phases=2 bus1=ET13_2538.2.4 bus2=BT370991.2.4 linecode=62_2 length=0.11473 units=km
New Line.SBT_22307 phases=2 bus1=ET13_2538.2.4 bus2=BT366291.2.4 linecode=62_2 length=0.07892 units=km
New Line.SBT_22165 phases=2 bus1=ET13_2646.1.4 bus2=BT464091.1.4 linecode=60_2 length=0.08053 units=km
New Line.SBT_22166 phases=2 bus1=BT464091.1.4 bus2=BT464101.1.4 linecode=60_2 length=0.06357 units=km
New Line.SBT_6419 phases=2 bus1=ET13_2646.1.4 bus2=BT464071.1.4 linecode=62_2 length=0.06168 units=km
New Line.SBT_6420 phases=2 bus1=ET13_2646.2.4 bus2=BT464081.2.4 linecode=60_2 length=0.04569 units=km
New Line.SBT_6421 phases=2 bus1=BT464071.1.4 bus2=BT464061.1.4 linecode=62_2 length=0.05554 units=km
New Line.SBT_6422 phases=2 bus1=BT464101.1.4 bus2=BT464111.1.4 linecode=60_2 length=0.10827 units=km
New Line.SBT_6435 phases=2 bus1=BT464111.1.4 bus2=BT464121.1.4 linecode=60_2 length=0.09633 units=km
New Line.SBT_27739 phases=2 bus1=ET13_3152.1.4 bus2=BT598631.1.4 linecode=60_2 length=0.02484 units=km
New Line.SBT_26160 phases=2 bus1=BT625101.1.4 bus2=BT625111.1.4 linecode=62_2 length=0.12406 units=km
New Line.SBT_26161 phases=2 bus1=BT625121.1.4 bus2=BT625131.1.4 linecode=62_2 length=0.11389 units=km
New Line.SBT_26065 phases=2 bus1=ET13_3202.1.4 bus2=BT625081.1.4 linecode=62_2 length=0.10555 units=km
New Line.SBT_13314 phases=2 bus1=ET13_3202.2.4 bus2=BT750381.2.4 linecode=62_2 length=0.07218 units=km
New Line.SBT_13485 phases=2 bus1=BT625081.1.4 bus2=BT625101.1.4 linecode=62_2 length=0.05608 units=km
New Line.SBT_13486 phases=2 bus1=BT625111.1.4 bus2=BT625121.1.4 linecode=62_2 length=0.07052 units=km
New Line.SBT_29318 phases=2 bus1=BT750381.2.4 bus2=BT631741.2.4 linecode=62_2 length=0.08585 units=km
New Line.SBT_33584 phases=2 bus1=BT792811.1.4 bus2=BT36761.1.4 linecode=60_2 length=0.03111 units=km
New Line.SBT_33585 phases=2 bus1=ET13_3414.1.4 bus2=BT792811.1.4 linecode=60_2 length=0.08212 units=km
New Line.SBT_7339 phases=3 bus1=BT36721.1.2.4 bus2=BT36713.1.2.4 linecode=44_3 length=0.09798 units=km
New Line.SBT_7340 phases=3 bus1=BT36732.1.2.4 bus2=BT36721.1.2.4 linecode=44_3 length=0.0906 units=km
New Line.SBT_7558 phases=2 bus1=BT36761.1.4 bus2=BT36771.1.4 linecode=60_2 length=0.19246 units=km
New Line.SBT_7797 phases=3 bus1=ET13_3414.1.2.4 bus2=BT36741.1.2.4 linecode=44_3 length=0.08481 units=km
New Line.SBT_7800 phases=3 bus1=ET13_3414.1.2.4 bus2=BT346771.1.2.4 linecode=44_3 length=0.10653 units=km
New Line.SBT_16334 phases=3 bus1=BT36713.1.2.4 bus2=BT36661.1.2.4 linecode=44_3 length=0.08709 units=km
New Line.SBT_22954 phases=3 bus1=BT36741.1.2.4 bus2=BT36732.1.2.4 linecode=44_3 length=0.07981 units=km
New Line.SBT_13854 phases=2 bus1=ET13_3648.2.4 bus2=BT603161.2.4 linecode=62_2 length=0.1385 units=km
New Line.SBT_13855 phases=2 bus1=BT603161.2.4 bus2=BT603171.2.4 linecode=62_2 length=0.06768 units=km
New Line.SBT_10136 phases=2 bus1=ET13_4133.1.4 bus2=BT35891.1.4 linecode=60_2 length=0.09651 units=km
New Line.SBT_10138 phases=2 bus1=BT35891.1.4 bus2=BT35881.1.4 linecode=60_2 length=0.0959 units=km
New Line.SBT_16214 phases=3 bus1=ET13_4133.1.2.4 bus2=BT287701.1.2.4 linecode=59_3 length=0.067 units=km
New Line.SBT_21961 phases=2 bus1=ET13_4133.1.4 bus2=BT35911.1.4 linecode=60_2 length=0.07762 units=km
New Line.SBT_21880 phases=2 bus1=BT4981.1.4 bus2=BT4991.1.4 linecode=60_2 length=0.26849 units=km
New Line.SBT_27705 phases=3 bus1=ET13_4285.1.2.4 bus2=BT4981.1.2.4 linecode=59_3 length=0.06873 units=km
New Line.SBT_7984 phases=2 bus1=ET13_4285.1.4 bus2=BT4961.1.4 linecode=62_2 length=0.04427 units=km
New Line.SBT_8320 phases=2 bus1=BT4961.1.4 bus2=BT4971.1.4 linecode=62_2 length=0.04713 units=km
New Line.SBT_5918 phases=2 bus1=BT4991.1.4 bus2=BT5001.1.4 linecode=60_2 length=0.07253 units=km
New Line.SBT_7192 phases=3 bus1=ET13_4406.1.2.4 bus2=BT121712.1.2.4 linecode=88_3 length=0.13836 units=km
New Line.SBT_8827 phases=3 bus1=BT20251.1.2.4 bus2=BT20261.1.2.4 linecode=59_3 length=0.13601 units=km
New Line.SBT_16573 phases=3 bus1=ET13_4578.1.2.4 bus2=BT20251.1.2.4 linecode=59_3 length=0.03002 units=km
New Line.SBT_18253 phases=2 bus1=BT20181.1.4 bus2=BT20191.1.4 linecode=60_2 length=0.04392 units=km
New Line.SBT_22690 phases=3 bus1=BT20141.1.2.4 bus2=BT19421.1.2.4 linecode=84_3 length=0.07325 units=km
New Line.SBT_22691 phases=3 bus1=BT20151.1.2.4 bus2=BT20141.1.2.4 linecode=84_3 length=0.07824 units=km
New Line.SBT_22556 phases=3 bus1=BT20151.1.2.4 bus2=BT20161.1.2.4 linecode=84_3 length=0.07793 units=km
New Line.SBT_23540 phases=3 bus1=ET13_4591.1.2.4 bus2=BT20181.1.2.4 linecode=84_3 length=0.04984 units=km
New Line.SBT_8814 phases=3 bus1=BT20161.1.2.4 bus2=BT20171.1.2.4 linecode=84_3 length=0.07826 units=km
New Line.SBT_7099 phases=3 bus1=BT20181.1.2.4 bus2=BT20151.1.2.4 linecode=84_3 length=0.08128 units=km
New Line.SBT_7328 phases=3 bus1=BT19421.1.2.4 bus2=BT19431.1.2.4 linecode=84_3 length=0.09124 units=km
New Line.SBT_6007 phases=3 bus1=BT22591.1.2.4 bus2=BT22601.1.2.4 linecode=44_3 length=0.25466 units=km
New Line.SBT_5818 phases=2 bus1=BT22611.1.4 bus2=BT22641.1.4 linecode=60_2 length=0.15344 units=km
New Line.SBT_6061 phases=2 bus1=BT22611.2.4 bus2=BT22621.2.4 linecode=60_2 length=0.01616 units=km
New Line.SBT_32198 phases=3 bus1=BT778451.1.2.4 bus2=BT4751.1.2.4 linecode=59_3 length=0.05002 units=km
New Line.SBT_32199 phases=3 bus1=BT4761.1.2.4 bus2=BT778441.1.2.4 linecode=59_3 length=0.09488 units=km
New Line.SBT_32200 phases=3 bus1=BT22591.1.2.4 bus2=BT778451.1.2.4 linecode=59_3 length=0.03575 units=km
New Line.SBT_27510 phases=3 bus1=BT715821.1.2.4 bus2=BT715831.1.2.4 linecode=59_3 length=0.07956 units=km
New Line.SBT_15920 phases=3 bus1=ET13_4714.1.2.4 bus2=BT715821.1.2.4 linecode=59_3 length=0.04826 units=km
New Line.SBT_15921 phases=3 bus1=ET13_4714.1.2.4 bus2=BT22591.1.2.4 linecode=59_3 length=0.06544 units=km
New Line.SBT_21823 phases=2 bus1=BT22621.2.4 bus2=BT22631.2.4 linecode=60_2 length=0.05413 units=km
New Line.SBT_21962 phases=3 bus1=BT22601.1.2.4 bus2=BT22611.1.2.4 linecode=44_3 length=0.05991 units=km
New Line.SBT_21931 phases=3 bus1=BT4751.1.2.4 bus2=BT4761.1.2.4 linecode=59_3 length=0.08293 units=km
New Line.SBT_23564 phases=3 bus1=ET13_4737.1.2.4 bus2=BT6581.1.2.4 linecode=44_3 length=0.10977 units=km
New Line.SBT_7220 phases=2 bus1=BT307121.1.4 bus2=BT307131.1.4 linecode=60_2 length=0.07368 units=km
New Line.SBT_8801 phases=3 bus1=ET13_4737.1.2.4 bus2=BT6591.1.2.4 linecode=44_3 length=0.08186 units=km
New Line.SBT_8821 phases=2 bus1=BT6581.1.4 bus2=BT307121.1.4 linecode=60_2 length=0.07467 units=km
New Line.SBT_30921 phases=2 bus1=BT765061.1.4 bus2=BT765051.1.4 linecode=62_2 length=0.07131 units=km
New Line.SBT_30922 phases=2 bus1=ET13_4985.1.4 bus2=BT765061.1.4 linecode=62_2 length=0.05378 units=km
New Line.SBT_7819 phases=2 bus1=ET13_5125.1.4 bus2=BT731331.1.4 linecode=62_2 length=0.05822 units=km
New Line.SBT_22975 phases=2 bus1=BT731331.1.4 bus2=BT731311.1.4 linecode=62_2 length=0.06107 units=km
New Line.SBT_22834 phases=2 bus1=ET13_5125.2.4 bus2=BT34251.2.4 linecode=60_2 length=0.13647 units=km
New Line.SBT_16764 phases=2 bus1=BT731311.1.4 bus2=BT731321.1.4 linecode=62_2 length=0.03547 units=km
New Line.SBT_29314 phases=2 bus1=ET13_5551.1.4 bus2=BT750351.1.4 linecode=62_2 length=0.04502 units=km
New Line.SBT_29315 phases=2 bus1=BT750351.1.4 bus2=BT750361.1.4 linecode=62_2 length=0.08253 units=km
New Line.SBT_32172 phases=3 bus1=ET13_5963.1.2.4 bus2=BT139121.1.2.4 linecode=44_3 length=0.10424 units=km
New Line.SBT_32175 phases=3 bus1=ET13_5963.1.2.4 bus2=BT139141.1.2.4 linecode=44_3 length=0.06801 units=km
New Line.SBT_33625 phases=3 bus1=ET13_6077.1.2.4 bus2=BT371011.1.2.4 linecode=59_3 length=0.04171 units=km
New Line.SBT_35354 phases=2 bus1=ET13_6342.1.4 bus2=BT5811.1.4 linecode=60_2 length=0.03664 units=km
New Line.SBT_35359 phases=2 bus1=BT810471.1.4 bus2=BT5861.1.4 linecode=60_2 length=0.18374 units=km
New Line.SBT_35361 phases=2 bus1=ET13_6342.1.4 bus2=BT810471.1.4 linecode=60_2 length=0.04914 units=km
New Line.SBT_35590 phases=4 bus1=ET13_6345.1.2.3.4 bus2=BT811801.1.2.3.4 linecode=73_4 length=0.05477 units=km
New Line.SBT_6038 phases=2 bus1=BT381121.1.4 bus2=BT381131.1.4 linecode=60_2 length=0.12385 units=km
New Line.SBT_6040 phases=2 bus1=BT381131.1.4 bus2=BT381141.1.4 linecode=60_2 length=0.06762 units=km
New Line.SBT_6185 phases=3 bus1=ET13_795.1.2.4 bus2=BT5791.1.2.4 linecode=44_3 length=0.09976 units=km
New Line.SBT_6186 phases=3 bus1=BT5791.1.2.4 bus2=BT5781.1.2.4 linecode=44_3 length=0.07495 units=km
New Line.SBT_6188 phases=2 bus1=BT5791.1.4 bus2=BT381121.1.4 linecode=60_2 length=0.10294 units=km
New Line.SBT_35355 phases=3 bus1=ET13_795.1.2.4 bus2=BT5812.1.2.4 linecode=44_3 length=0.11247 units=km
New Line.SBT_35356 phases=2 bus1=BT5812.1.4 bus2=BT5821.1.4 linecode=60_2 length=0.09835 units=km
New Line.SBT_35357 phases=2 bus1=BT5821.1.4 bus2=BT5831.1.4 linecode=60_2 length=0.12102 units=km
New Line.SBT_35358 phases=2 bus1=BT5831.1.4 bus2=BT5841.1.4 linecode=60_2 length=0.15143 units=km
New Line.SBT_22032 phases=3 bus1=BT5781.1.2.4 bus2=BT5752.1.2.4 linecode=44_3 length=0.0892 units=km
New Line.SBT_21822 phases=3 bus1=BT22551.1.2.4 bus2=BT22571.1.2.4 linecode=44_3 length=0.04254 units=km
New Line.SBT_16276 phases=3 bus1=ET13_799.1.2.4 bus2=BT540291.1.2.4 linecode=44_3 length=0.08661 units=km
New Line.SBT_22097 phases=3 bus1=BT22571.1.2.4 bus2=BT22561.1.2.4 linecode=44_3 length=0.06685 units=km
New Line.SBT_6041 phases=3 bus1=ET13_799.1.2.4 bus2=BT22551.1.2.4 linecode=44_3 length=0.04 units=km
New Line.SBT_6042 phases=3 bus1=BT540291.1.2.4 bus2=BT22531.1.2.4 linecode=44_3 length=0.00224 units=km
New Line.SBT_6306 phases=2 bus1=ET13_799.2.4 bus2=BT381211.2.4 linecode=60_2 length=0.06236 units=km
New Line.SBT_5819 phases=2 bus1=BT19301.2.4 bus2=BT19311.2.4 linecode=62_2 length=0.06325 units=km
New Line.SBT_21824 phases=2 bus1=ET13_881.2.4 bus2=BT19301.2.4 linecode=62_2 length=0.08881 units=km
New Line.SBT_21825 phases=3 bus1=ET13_944.1.2.4 bus2=BT34101.1.2.4 linecode=44_3 length=0.12315 units=km
New Line.SBT_22831 phases=3 bus1=ET13_944.1.2.4 bus2=BT34061.1.2.4 linecode=44_3 length=0.10807 units=km
New Line.SBT_22832 phases=3 bus1=BT34061.1.2.4 bus2=BT34071.1.2.4 linecode=44_3 length=0.1311 units=km
New Line.SBT_22837 phases=3 bus1=BT32121.1.2.4 bus2=BT32131.1.2.4 linecode=44_3 length=0.12347 units=km
New Line.SBT_22688 phases=3 bus1=BT22421.1.2.4 bus2=BT22411.1.2.4 linecode=44_3 length=0.118 units=km
New Line.SBT_22804 phases=2 bus1=BT22411.2.4 bus2=BT41361.2.4 linecode=60_2 length=0.06011 units=km
New Line.SBT_22805 phases=2 bus1=BT34081.1.4 bus2=BT34091.1.4 linecode=60_2 length=0.15122 units=km
New Line.SBT_7568 phases=3 bus1=ET13_944.1.2.4 bus2=BT22421.1.2.4 linecode=44_3 length=0.123 units=km
New Line.SBT_7569 phases=2 bus1=BT34061.1.4 bus2=BT34081.1.4 linecode=60_2 length=0.13167 units=km
New Line.SBT_7570 phases=3 bus1=BT34101.1.2.4 bus2=BT34111.1.2.4 linecode=44_3 length=0.1016 units=km
New Line.SBT_7581 phases=2 bus1=BT32131.2.4 bus2=BT32141.2.4 linecode=60_2 length=0.05261 units=km
New Line.SBT_7526 phases=3 bus1=BT34111.1.2.4 bus2=BT32111.1.2.4 linecode=44_3 length=0.09535 units=km
New Line.SBT_7527 phases=3 bus1=BT32111.1.2.4 bus2=BT32121.1.2.4 linecode=44_3 length=0.09504 units=km
New Line.SBT_7337 phases=3 bus1=BT138191.1.2.4 bus2=BT138201.1.2.4 linecode=44_3 length=0.10242 units=km
New Line.SBT_7338 phases=2 bus1=BT138201.2.4 bus2=BT138211.2.4 linecode=60_2 length=0.08994 units=km
New Line.SBT_22697 phases=3 bus1=ET13_945.1.2.4 bus2=BT138171.1.2.4 linecode=44_3 length=0.08916 units=km
New Line.SBT_22838 phases=3 bus1=ET13_945.1.2.4 bus2=BT138191.1.2.4 linecode=44_3 length=0.08013 units=km
New Line.SBT_25869 phases=2 bus1=BT138201.1.4 bus2=BT138221.1.4 linecode=60_2 length=0.08556 units=km
New Line.SBT_12966 phases=2 bus1=BT138221.1.4 bus2=BT138231.1.4 linecode=60_2 length=0.07523 units=km
New Line.SBT_22961 phases=3 bus1=BT36662.1.2.4 bus2=BT36691.1.2.4 linecode=44_3 length=0.3157 units=km
New Line.SBT_21929 phases=2 bus1=BT36641.2.4 bus2=BT350681.2.4 linecode=60_2 length=0.04 units=km
New Line.SBT_7281 phases=3 bus1=BT36641.1.2.4 bus2=BT36631.1.2.4 linecode=44_3 length=0.1294 units=km
New Line.SBT_7557 phases=3 bus1=BT36631.1.2.4 bus2=BT350721.1.2.4 linecode=59_3 length=0.08429 units=km
New Line.SBT_7341 phases=3 bus1=ET13_946.1.2.4 bus2=BT36662.1.2.4 linecode=44_3 length=0.16736 units=km
New Line.SBT_7342 phases=2 bus1=BT36662.1.4 bus2=BT36671.1.4 linecode=60_2 length=0.1549 units=km
New Line.SBT_7798 phases=2 bus1=BT36671.1.4 bus2=BT36681.1.4 linecode=60_2 length=0.18459 units=km
New Line.SBT_7799 phases=3 bus1=BT36691.1.2.4 bus2=BT36701.1.2.4 linecode=44_3 length=0.06859 units=km
New Line.SBT_6002 phases=3 bus1=ET13_946.1.2.4 bus2=BT36641.1.2.4 linecode=44_3 length=0.12491 units=km
New Line.SBT_36347 phases=2 bus1=BT34181.1.4 bus2=BT819041.1.4 linecode=60_2 length=0.0495 units=km
New Line.SBT_36348 phases=2 bus1=BT819041.1.4 bus2=BT819051.1.4 linecode=60_2 length=0.04397 units=km
New Line.SBT_7759 phases=2 bus1=ET13_947.1.4 bus2=BT34181.1.4 linecode=60_2 length=0.08384 units=km
New Line.SBT_7577 phases=2 bus1=BT603491.2.4 bus2=BT35831.2.4 linecode=60_2 length=0.05968 units=km
New Line.SBT_22982 phases=2 bus1=BT35851.1.4 bus2=BT35882.1.4 linecode=60_2 length=0.10474 units=km
New Line.SBT_22835 phases=3 bus1=ET13_948.1.2.4 bus2=BT35851.1.2.4 linecode=44_3 length=0.10912 units=km
New Line.SBT_26365 phases=2 bus1=ET13_948.2.4 bus2=BT603491.2.4 linecode=60_2 length=0.07157 units=km
New Line.SBT_22500 phases=3 bus1=BT34881.1.2.4 bus2=BT34891.1.2.4 linecode=44_3 length=0.10242 units=km
New Line.SBT_22648 phases=3 bus1=BT34891.1.2.4 bus2=BT34901.1.2.4 linecode=44_3 length=0.09933 units=km
New Line.SBT_22655 phases=3 bus1=BT34901.1.2.4 bus2=BT34911.1.2.4 linecode=44_3 length=0.10161 units=km
New Line.SBT_18382 phases=3 bus1=BT34911.1.2.4 bus2=BT34921.1.2.4 linecode=44_3 length=0.10439 units=km
New Line.SBT_6993 phases=3 bus1=ET13_949.1.2.4 bus2=BT705231.1.2.4 linecode=44_3 length=0.12319 units=km
New Line.SBT_7000 phases=3 bus1=BT705231.1.2.4 bus2=BT34881.1.2.4 linecode=44_3 length=0.1019 units=km
New Line.SBT_6953 phases=3 bus1=BT34991.1.2.4 bus2=BT34981.1.2.4 linecode=44_3 length=0.08683 units=km
New Line.SBT_6954 phases=3 bus1=BT34981.1.2.4 bus2=BT34961.1.2.4 linecode=44_3 length=0.07094 units=km
New Line.SBT_6956 phases=2 bus1=BT34961.1.4 bus2=BT350751.1.4 linecode=60_2 length=0.08395 units=km
New Line.SBT_7007 phases=3 bus1=BT34961.1.2.4 bus2=BT34971.1.2.4 linecode=44_3 length=0.05324 units=km
New Line.SBT_7278 phases=3 bus1=ET13_950.1.2.4 bus2=BT35001.1.2.4 linecode=44_3 length=0.09873 units=km
New Line.SBT_7285 phases=2 bus1=BT350751.1.4 bus2=BT361361.1.4 linecode=60_2 length=0.04851 units=km
New Line.SBT_18156 phases=2 bus1=BT370331.1.4 bus2=BT370341.1.4 linecode=60_2 length=0.09543 units=km
New Line.SBT_16292 phases=2 bus1=BT34981.1.4 bus2=BT370321.1.4 linecode=60_2 length=0.127 units=km
New Line.SBT_22661 phases=2 bus1=BT17271.2.4 bus2=BT17281.2.4 linecode=60_2 length=0.10155 units=km
New Line.SBT_27138 phases=2 bus1=ET13_950.2.4 bus2=BT17271.2.4 linecode=60_2 length=0.09194 units=km
New Line.SBT_27710 phases=2 bus1=BT370321.1.4 bus2=BT370331.1.4 linecode=60_2 length=0.1036 units=km
New Line.SBT_29024 phases=3 bus1=BT35001.1.2.4 bus2=BT34991.1.2.4 linecode=44_3 length=0.05174 units=km
New Line.SBT_22656 phases=3 bus1=BT39401.1.2.4 bus2=BT19181.1.2.4 linecode=44_3 length=0.04883 units=km
New Line.SBT_22657 phases=3 bus1=BT640211.1.2.4 bus2=BT19191.1.2.4 linecode=44_3 length=0.10904 units=km
New Line.SBT_18022 phases=3 bus1=BT19181.1.2.4 bus2=BT640211.1.2.4 linecode=44_3 length=0.04632 units=km
New Line.SBT_7271 phases=3 bus1=ET13_952.1.2.4 bus2=BT39401.1.2.4 linecode=44_3 length=0.07882 units=km
New Line.SBT_7272 phases=2 bus1=BT39371.1.4 bus2=BT39381.1.4 linecode=60_2 length=0.05126 units=km
New Line.SBT_7194 phases=3 bus1=ET13_952.1.2.4 bus2=BT39371.1.2.4 linecode=44_3 length=0.05143 units=km
New Line.SBT_7011 phases=2 bus1=BT139161.1.4 bus2=BT139171.1.4 linecode=60_2 length=0.22218 units=km
New Line.SBT_7273 phases=3 bus1=ET13_985.1.2.4 bus2=BT139101.1.2.4 linecode=44_3 length=0.06248 units=km
New Line.SBT_7274 phases=2 bus1=ET13_985.1.4 bus2=BT139151.1.4 linecode=60_2 length=0.09002 units=km
New Line.SBT_7275 phases=2 bus1=BT139151.1.4 bus2=BT139161.1.4 linecode=60_2 length=0.09413 units=km
New Line.SBT_32173 phases=3 bus1=BT139111.1.2.4 bus2=BT139122.1.2.4 linecode=44_3 length=0.07841 units=km
New Line.SBT_22658 phases=3 bus1=BT139101.1.2.4 bus2=BT139111.1.2.4 linecode=44_3 length=0.07951 units=km
New Line.SBT_22504 phases=3 bus1=ET13_986.1.2.4 bus2=BT139261.1.2.4 linecode=44_3 length=0.02126 units=km
New Line.SBT_7287 phases=2 bus1=ET13_986.1.4 bus2=BT139241.1.4 linecode=60_2 length=0.12108 units=km
New Line.SBT_7288 phases=2 bus1=BT139261.2.4 bus2=BT139271.2.4 linecode=60_2 length=0.10496 units=km
New Line.SBT_7289 phases=2 bus1=BT139271.2.4 bus2=BT139281.2.4 linecode=60_2 length=0.0882 units=km
New Line.SBT_7290 phases=2 bus1=BT139281.2.4 bus2=BT139291.2.4 linecode=60_2 length=0.13892 units=km
New Line.SBT_7291 phases=3 bus1=ET13_987.1.2.4 bus2=BT136421.1.2.4 linecode=44_3 length=0.05819 units=km
New Line.SBT_7292 phases=2 bus1=BT136421.1.4 bus2=BT136431.1.4 linecode=60_2 length=0.10439 units=km
New Line.SBT_7042 phases=2 bus1=BT136431.1.4 bus2=BT136441.1.4 linecode=60_2 length=0.10296 units=km
New Line.SBT_7043 phases=2 bus1=BT136441.1.4 bus2=BT38871.1.4 linecode=60_2 length=0.10823 units=km
New Line.SBT_7044 phases=3 bus1=BT121731.1.2.4 bus2=BT121721.1.2.4 linecode=44_3 length=0.12814 units=km
New Line.SBT_7004 phases=3 bus1=BT121721.1.2.4 bus2=BT121711.1.2.4 linecode=44_3 length=0.11211 units=km
New Line.SBT_22522 phases=3 bus1=BT121751.1.2.4 bus2=BT121741.1.2.4 linecode=44_3 length=0.11921 units=km
New Line.SBT_22523 phases=3 bus1=BT121741.1.2.4 bus2=BT121731.1.2.4 linecode=44_3 length=0.10955 units=km
New Line.SBT_18056 phases=3 bus1=ET13_987.1.2.4 bus2=BT121751.1.2.4 linecode=44_3 length=0.08896 units=km
New Line.SBT_16387 phases=3 bus1=ET13_988.1.2.4 bus2=BT140201.1.2.4 linecode=44_3 length=0.16236 units=km
New Line.SBT_22678 phases=2 bus1=BT140221.1.4 bus2=BT140231.1.4 linecode=60_2 length=0.03795 units=km
New Line.SBT_22679 phases=2 bus1=BT324831.1.4 bus2=BT443151.1.4 linecode=60_2 length=0.02796 units=km
New Line.SBT_28886 phases=3 bus1=BT370441.1.2.4 bus2=BT370451.1.2.4 linecode=44_3 length=0.08447 units=km
New Line.SBT_27766 phases=3 bus1=BT140201.1.2.4 bus2=BT140191.1.2.4 linecode=44_3 length=0.09447 units=km
New Line.SBT_7032 phases=3 bus1=ET13_988.1.2.4 bus2=BT370441.1.2.4 linecode=44_3 length=0.14532 units=km
New Line.SBT_7033 phases=2 bus1=ET13_988.1.4 bus2=BT140221.1.4 linecode=60_2 length=0.14958 units=km
New Line.SBT_7308 phases=3 bus1=BT370451.1.2.4 bus2=BT370461.1.2.4 linecode=44_3 length=0.08249 units=km
New Line.SBT_7309 phases=3 bus1=BT140191.1.2.4 bus2=BT324831.1.2.4 linecode=44_3 length=0.16642 units=km
New Line.SBT_28775 phases=3 bus1=BT117811.1.2.4 bus2=BT117821.1.2.4 linecode=44_3 length=0.10745 units=km
New Line.SBT_25122 phases=3 bus1=BT117821.1.2.4 bus2=BT117832.1.2.4 linecode=44_3 length=0.10867 units=km
New Line.SBT_22682 phases=3 bus1=ET13_989.1.2.4 bus2=BT117811.1.2.4 linecode=44_3 length=0.08132 units=km
New Line.SBT_23845 phases=2 bus1=ET19_1058.1.4 bus2=BT36081.1.4 linecode=60_2 length=0.09441 units=km
New Line.SBT_9142 phases=2 bus1=BT36081.1.4 bus2=BT36101.1.4 linecode=60_2 length=0.08006 units=km
New Line.SBT_9343 phases=2 bus1=BT36081.1.4 bus2=BT36091.1.4 linecode=60_2 length=0.03314 units=km
New Line.SBT_9372 phases=3 bus1=BT102001.1.2.4 bus2=BT124362.1.2.4 linecode=44_3 length=0.08721 units=km
New Line.SBT_23882 phases=3 bus1=ET19_1251.1.2.4 bus2=BT102001.1.2.4 linecode=44_3 length=0.13631 units=km
New Line.SBT_24005 phases=2 bus1=BT40221.2.4 bus2=BT40231.2.4 linecode=60_2 length=0.07284 units=km
New Line.SBT_24145 phases=2 bus1=BT40171.1.4 bus2=BT40181.1.4 linecode=60_2 length=0.079 units=km
New Line.SBT_24113 phases=3 bus1=ET19_1252.1.2.4 bus2=BT40241.1.2.4 linecode=44_3 length=0.08677 units=km
New Line.SBT_24114 phases=2 bus1=BT40191.2.4 bus2=BT40211.2.4 linecode=60_2 length=0.07142 units=km
New Line.SBT_25964 phases=2 bus1=BT40261.1.4 bus2=BT605141.1.4 linecode=62_2 length=0.08836 units=km
New Line.SBT_25985 phases=2 bus1=BT605151.1.4 bus2=BT605161.1.4 linecode=62_2 length=0.08438 units=km
New Line.SBT_13132 phases=2 bus1=BT605141.1.4 bus2=BT605151.1.4 linecode=62_2 length=0.08606 units=km
New Line.SBT_9557 phases=2 bus1=BT40191.1.4 bus2=BT40201.1.4 linecode=60_2 length=0.03754 units=km
New Line.SBT_9558 phases=2 bus1=BT40211.2.4 bus2=BT40221.2.4 linecode=60_2 length=0.07849 units=km
New Line.SBT_9616 phases=2 bus1=BT40241.1.4 bus2=BT40251.1.4 linecode=60_2 length=0.10288 units=km
New Line.SBT_9617 phases=2 bus1=BT40251.1.4 bus2=BT40261.1.4 linecode=60_2 length=0.05133 units=km
New Line.SBT_9808 phases=2 bus1=ET19_1252.1.4 bus2=BT40171.1.4 linecode=60_2 length=0.07942 units=km
New Line.SBT_9809 phases=3 bus1=ET19_1252.1.2.4 bus2=BT40191.1.2.4 linecode=44_3 length=0.06366 units=km
New Line.SBT_9642 phases=3 bus1=ET19_1266.1.2.4 bus2=BT22661.1.2.4 linecode=44_3 length=0.06703 units=km
New Line.SBT_9592 phases=2 bus1=BT22681.1.4 bus2=BT22691.1.4 linecode=60_2 length=0.10197 units=km
New Line.SBT_9595 phases=3 bus1=BT22661.1.2.4 bus2=BT22651.1.2.4 linecode=44_3 length=0.06905 units=km
New Line.SBT_24013 phases=3 bus1=BT22651.1.2.4 bus2=BT8262.1.2.4 linecode=44_3 length=0.11216 units=km
New Line.SBT_23989 phases=2 bus1=ET19_1266.1.4 bus2=BT22681.1.4 linecode=60_2 length=0.12748 units=km
New Line.SBT_23990 phases=2 bus1=BT22691.1.4 bus2=BT22701.1.4 linecode=60_2 length=0.08881 units=km
New Line.SBT_23886 phases=3 bus1=ET19_1267.1.2.4 bus2=BT38571.1.2.4 linecode=44_3 length=0.08609 units=km
New Line.SBT_12586 phases=3 bus1=ET19_1267.1.2.4 bus2=BT38591.1.2.4 linecode=44_3 length=0.09762 units=km
New Line.SBT_9606 phases=2 bus1=BT38551.2.4 bus2=BT38561.2.4 linecode=60_2 length=0.06494 units=km
New Line.SBT_9607 phases=3 bus1=BT38541.1.2.4 bus2=BT38531.1.2.4 linecode=44_3 length=0.09027 units=km
New Line.SBT_9593 phases=3 bus1=BT38591.1.2.4 bus2=BT38601.1.2.4 linecode=44_3 length=0.16577 units=km
New Line.SBT_9594 phases=3 bus1=BT38601.1.2.4 bus2=BT38611.1.2.4 linecode=44_3 length=0.06607 units=km
New Line.SBT_9604 phases=3 bus1=BT38551.1.2.4 bus2=BT38541.1.2.4 linecode=44_3 length=0.0902 units=km
New Line.SBT_9413 phases=3 bus1=BT38571.1.2.4 bus2=BT38551.1.2.4 linecode=44_3 length=0.08373 units=km
New Line.SBT_9425 phases=2 bus1=ET19_1341.1.4 bus2=BT18891.1.4 linecode=60_2 length=0.17576 units=km
New Line.SBT_9426 phases=2 bus1=BT18891.1.4 bus2=BT343011.1.4 linecode=60_2 length=0.0828 units=km
New Line.SBT_36071 phases=4 bus1=BT111671.1.2.3.4 bus2=BT111661.1.2.3.4 linecode=92_4 length=0.08015 units=km
New Line.SBT_36072 phases=4 bus1=BT111681.1.2.3.4 bus2=BT111671.1.2.3.4 linecode=92_4 length=0.06436 units=km
New Line.SBT_36073 phases=4 bus1=ET19_1393.1.2.3.4 bus2=BT111681.1.2.3.4 linecode=92_4 length=0.06566 units=km
New Line.SBT_36075 phases=4 bus1=ET19_1393.1.2.3.4 bus2=BT476601.1.2.3.4 linecode=74_4 length=0.045 units=km
New Line.SBT_35404 phases=2 bus1=BT111781.1.4 bus2=BT324991.1.4 linecode=62_2 length=0.08683 units=km
New Line.SBT_9838 phases=2 bus1=BT111781.1.4 bus2=BT324981.1.4 linecode=62_2 length=0.08802 units=km
New Line.SBT_9895 phases=2 bus1=BT324991.1.4 bus2=BT332871.1.4 linecode=62_2 length=0.10846 units=km
New Line.SBT_24162 phases=2 bus1=BT332871.1.4 bus2=BT332881.1.4 linecode=62_2 length=0.14757 units=km
New Line.SBT_28770 phases=3 bus1=ET19_1441.1.2.4 bus2=BT111771.1.2.4 linecode=59_3 length=0.07765 units=km
New Line.SBT_28819 phases=3 bus1=ET19_1441.1.2.4 bus2=BT111781.1.2.4 linecode=91_3 length=0.05917 units=km
New Line.SBT_28820 phases=2 bus1=BT332881.1.4 bus2=BT332891.1.4 linecode=62_2 length=0.12433 units=km
New Line.SBT_26518 phases=4 bus1=BT9371.1.2.3.4 bus2=BT624431.1.2.3.4 linecode=75_4 length=0.04465 units=km
New Line.SBT_23947 phases=3 bus1=BT9311.1.2.4 bus2=BT9301.1.2.4 linecode=59_3 length=0.08286 units=km
New Line.SBT_23803 phases=4 bus1=BT9371.1.2.3.4 bus2=BT9361.1.2.3.4 linecode=73_4 length=0.04904 units=km
New Line.SBT_23804 phases=4 bus1=BT9331.1.2.3.4 bus2=BT9311.1.2.3.4 linecode=97_4 length=0.11102 units=km
New Line.SBT_9444 phases=4 bus1=ET19_145.1.2.3.4 bus2=BT9341.1.2.3.4 linecode=75_4 length=0.08215 units=km
New Line.SBT_9266 phases=4 bus1=ET19_145.1.2.3.4 bus2=BT9371.1.2.3.4 linecode=75_4 length=0.11453 units=km
New Line.SBT_9267 phases=4 bus1=BT9341.1.2.3.4 bus2=BT9331.1.2.3.4 linecode=97_4 length=0.1077 units=km
New Line.SBT_9268 phases=4 bus1=BT624431.1.2.3.4 bus2=BT24441.1.2.3.4 linecode=75_4 length=0.03265 units=km
New Line.SBT_9269 phases=4 bus1=BT9311.1.2.3.4 bus2=BT9321.1.2.3.4 linecode=97_4 length=0.04264 units=km
New Line.SBT_2939 phases=3 bus1=BT9361.3.1.4 bus2=BT651491.3.1.4 linecode=59_3 length=0.04561 units=km
New Line.SBT_9280 phases=3 bus1=ET19_1457.1.2.4 bus2=BT86141.1.2.4 linecode=44_3 length=0.08631 units=km
New Line.SBT_9281 phases=3 bus1=BT86151.1.2.4 bus2=BT86161.1.2.4 linecode=44_3 length=0.07524 units=km
New Line.SBT_9282 phases=3 bus1=BT86161.1.2.4 bus2=BT86171.1.2.4 linecode=44_3 length=0.1254 units=km
New Line.SBT_23808 phases=4 bus1=BT727511.1.2.3.4 bus2=BT105131.1.2.3.4 linecode=97_4 length=0.03178 units=km
New Line.SBT_23809 phases=3 bus1=BT727531.1.2.4 bus2=BT86151.1.2.4 linecode=44_3 length=0.04804 units=km
New Line.SBT_28180 phases=3 bus1=BT86141.1.2.4 bus2=BT727531.1.2.4 linecode=44_3 length=0.05109 units=km
New Line.SBT_18094 phases=2 bus1=ET19_1457.1.4 bus2=BT633341.1.4 linecode=62_2 length=0.05324 units=km
New Line.SBT_17092 phases=4 bus1=ET19_1457.1.2.3.4 bus2=BT727511.1.2.3.4 linecode=97_4 length=0.02419 units=km
New Line.SBT_24068 phases=4 bus1=BT9171.1.2.3.4 bus2=BT9181.1.2.3.4 linecode=73_4 length=0.07767 units=km
New Line.SBT_24069 phases=4 bus1=BT9181.1.2.3.4 bus2=BT9191.1.2.3.4 linecode=73_4 length=0.0735 units=km
New Line.SBT_23582 phases=4 bus1=BT9151.1.2.3.4 bus2=BT66922.1.2.3.4 linecode=73_4 length=0.05948 units=km
New Line.SBT_9731 phases=4 bus1=BT9191.1.2.3.4 bus2=BT9201.1.2.3.4 linecode=73_4 length=0.06325 units=km
New Line.SBT_8885 phases=4 bus1=BT9161.1.2.3.4 bus2=BT9151.1.2.3.4 linecode=73_4 length=0.08013 units=km
New Line.SBT_8886 phases=4 bus1=ET19_146.1.2.3.4 bus2=BT9171.1.2.3.4 linecode=73_4 length=0.04327 units=km
New Line.SBT_4431 phases=4 bus1=ET19_146.1.2.3.4 bus2=BT9161.1.2.3.4 linecode=73_4 length=0.03354 units=km
New Line.SBT_9732 phases=4 bus1=ET19_147.1.2.3.4 bus2=BT66661.1.2.3.4 linecode=75_4 length=0.08036 units=km