New Load.BT_1314147_M1 bus1=UC1314147.1.4 phases=1 conn=Wye model=2 kv=0.22 kw=0.0701705 pf=0.92 daily=RU8_DU status=variable vmaxpu=1.5 vminpu=0.92
New Load.BT_1314147_M2 bus1=UC1314147.1.4 phases=1 conn=Wye model=3 kv=0.22 kw=0.0701705 pf=0.92 daily=RU8_DU status=variable vmaxpu=1.5 vminpu=0.92
New Load.BT_1314148_M1 bus1=UC1314148.2.4 phases=1 conn=Wye model=2 kv=0.22 kw=0.4336555 pf=0.92 daily=RU8_DU status=variable vmaxpu=1.5 vminpu=0.92
New Load.BT_1314148_M2 bus1=UC1314148.2.4 phases=1 conn=Wye model=3 kv=0.22 kw=0.4336555 pf=0.92 daily=RU8_DU status=variable vmaxpu=1.5 vminpu=0.92
New Load.BT_1314099_M1 bus1=UC1314099.2.4 phases=1 conn=Wye model=2 kv=0.22 kw=0.122988 pf=0.92 daily=RU7_DU status=variable vmaxpu=1.5 vminpu=0.92
New Load.BT_1314099_M2 bus1=UC1314099.2.4 phases=1 conn=Wye model=3 kv=0.22 kw=0.122988 pf=0.92 daily=RU7_DU status=variable vmaxpu=1.5 vminpu=0.92
New Load.BT_1314100_M1 bus1=UC1314100.1.4 phases=1 conn=Wye model=2 kv=0.22 kw=0.193671 pf=0.92 daily=RU8_DU status=variable vmaxpu=1.5 vminpu=0.92
New Load.BT_1314100_M2 bus1=UC1314100.1.4 phases=1 conn=Wye model=3 kv=0.22 kw=0.193671 pf=0.92 daily=RU8_DU status=variable vmaxpu=1.5 vminpu=0.92
New Load.BT_1314101_M1 bus1=UC1314101.2.4 phases=1 conn=Wye model=2 kv=0.22 kw=0.5966005 pf=0.92 daily=RU2_DU status=variable vmaxpu=1.5 vminpu=0.92
New Load.BT_1314101_M2 bus1=UC1314101.2.4 phases=1 conn=Wye model=3 kv=0.22 kw=0.5966005 pf=0.92 daily=RU2_DU status=variable vmaxpu=1.5 vminpu=0.92
New Load.BT_1312628_M1 bus1=UC1312628.1.4 phases=1 conn=Wye model=2 kv=0.22 kw=0.0028065 pf=0.92 daily=RU8_DU status=variable vmaxpu=1.5 vminpu=0.92
New Load.BT_1312628_M2 bus1=UC1312628.1.4 phases=1 conn=Wye model=3 kv=0.22 kw=0.0028065 pf=0.92 daily=RU8_DU status=variable vmaxpu=1.5 vminpu=0.92
New Load.BT_1314136_M1 bus1=UC1314136.2.4 phases=1 conn=Wye model=2 kv=0.22 kw=0.16519 pf=0.92 daily=RU7_DU status=variable vmaxpu=1.5 vminpu=0.92
New Load.BT_1314136_M2 bus1=UC1314136.2.4 phases=1 conn=Wye model=3 kv=0.22 kw=0.16519 pf=0.92 daily=RU7_DU status=variable vmaxpu=1.5 vminpu=0.92
New Load.BT_1314137_M1 bus1=UC1314137.1.2.4 phases=1 conn=Delta model=2 kv=0.44 kw=0.800123 pf=0.92 daily=RU2_DU status=variable vmaxpu=1.5 vminpu=0.92
New Load.BT_1314137_M2 bus1=UC1314137.1.2.4 phases=1 conn=Delta model=3 kv=0.44 kw=0.800123 pf=0.92 daily=RU2_DU status=variable vmaxpu=1.5 vminpu=0.92
New Load.BT_1314138_M1 bus1=UC1314138.1.2.4 phases=1 conn=Delta model=2 kv=0.44 kw=1.462597 pf=0.92 daily=RU7_DU status=variable vmaxpu=1.5 vminpu=0.92
New Load.BT_1314138_M2 bus1=UC1314138.1.2.4 phases=1 conn=Delta model=3 kv=0.44 kw=1.462597 pf=0.92 daily=RU7_DU status=variable vmaxpu=1.5 vminpu=0.92
New Load.BT_1314121_M1 bus1=UC1314121.1.4 phases=1 conn=Wye model=2 kv=0.22 kw=0.2182615 pf=0.92 daily=RU5_DU status=variable vmaxpu=1.5 vminpu=0.92
New Load.BT_1314121_M2 bus1=UC1314121.1.4 phases=1 conn=Wye model=3 kv=0.22 kw=0.2182615 pf=0.92 daily=RU5_DU status=variable vmaxpu=1.5 vminpu=0.92
New Load.BT_1331272_M1 bus1=UC1331272.2.4 phases=1 conn=Wye model=2 kv=0.22 kw=0.333218 pf=0.92 daily=RU2_DU status=variable vmaxpu=1.5 vminpu=0.92
New Load.BT_1331272_M2 bus1=UC1331272.2.4 phases=1 conn=Wye model=3 kv=0.22 kw=0.333218 pf=0.92 daily=RU2_DU status=variable vmaxpu=1.5 vminpu=0.92
New Load.BT_1314020_M1 bus1=UC1314020.2.4 phases=1 conn=Wye model=2 kv=0.22 kw=0.545007 pf=0.92 daily=RU7_DU status=variable vmaxpu=1.5 vminpu=0.92
New Load.BT_1314020_M2 bus1=UC1314020.2.4 phases=1 conn=Wye model=3 kv=0.22 kw=0.545007 pf=0.92 daily=RU7_DU status=variable vmaxpu=1.5 vminpu=0.92
New Load.BT_1320514_M1 bus1=UC1320514.1.4 phases=1 conn=Wye model=2 kv=0.22 kw=0.10249 pf=0.92 daily=RU7_DU status=variable vmaxpu=1.5 vminpu=0.92
New Load.BT_1320514_M2 bus1=UC1320514.1.4 phases=1 conn=Wye model=3 kv=0.22 kw=0.10249 pf=0.92 daily=RU7_DU status=variable vmaxpu=1.5 vminpu=0.92
New Load.BT_1325113_M1 bus1=UC1325113.2.4 phases=1 conn=Wye model=2 kv=0.22 kw=0.2245465 pf=0.92 daily=RU8_DU status=variable vmaxpu=1.5 vminpu=0.92
New Load.BT_1325113_M2 bus1=UC1325113.2.4 phases=1 conn=Wye model=3 kv=0.22 kw=0.2245465 pf=0.92 daily=RU8_DU status=variable vmaxpu=1.5 vminpu=0.92
New Load.BT_1335798_M1 bus1=UC1335798.1.2.3.4 phases=3 conn=Delta model=2 kv=0.38 kw=1.2824415 pf=0.92 daily=RU5_DU status=variable vmaxpu=1.5 vminpu=0.92
New Load.BT_1335798_M2 bus1=UC1335798.1.2.3.4 phases=3 conn=Delta model=3 kv=0.38 kw=1.2824415 pf=0.92 daily=RU5_DU status=variable vmaxpu=1.5 vminpu=0.92
New Load.BT_1314012_M1 bus1=UC1314012.1.2.3.4 phases=3 conn=Delta model=2 kv=0.38 kw=2.1579545 pf=0.92 daily=RU5_DU status=variable vmaxpu=1.5 vminpu=0.92
New Load.BT_1314012_M2 bus1=UC1314012.1.2.3.4 phases=3 conn=Delta model=3 kv=0.38 kw=2.1579545 pf=0.92 daily=RU5_DU status=variable vmaxpu=1.5 vminpu=0.92
New Load.BT_1314122_M1 bus1=UC1314122.1.4 phases=1 conn=Wye model=2 kv=0.22 kw=0.5786425 pf=0.92 daily=RU2_DU status=variable vmaxpu=1.5 vminpu=0.92
New Load.BT_1314122_M2 bus1=UC1314122.1.4 phases=1 conn=Wye model=3 kv=0.22 kw=0.5786425 pf=0.92 daily=RU2_DU status=variable vmaxpu=1.5 vminpu=0.92
New Load.BT_1320525_M1 bus1=UC1320525.2.4 phases=1 conn=Wye model=2 kv=0.22 kw=0.3791105 pf=0.92 daily=RU2_DU status=variable vmaxpu=1.5 vminpu=0.92
New Load.BT_1320525_M2 bus1=UC1320525.2.4 phases=1 conn=Wye model=3 kv=0.22 kw=0.3791105 pf=0.92 daily=RU2_DU status=variable vmaxpu=1.5 vminpu=0.92
New Load.BT_1335256_M1 bus1=UC1335256.1.4 phases=1 conn=Wye model=2 kv=0.22 kw=0.2360285 pf=0.92 daily=RU4_DU status=variable vmaxpu=1.5 vminpu=0.92
New Load.BT_1335256_M2 bus1=UC1335256.1.4 phases=1 conn=Wye model=3 kv=0.22 kw=0.2360285 pf=0.92 daily=RU4_DU status=variable vmaxpu=1.5 vminpu=0.92
New Load.BT_1337636_M1 bus1=UC1337636.1.4 phases=1 conn=Wye model=2 kv=0.22 kw=0.1975365 pf=0.92 daily=RU2_DU status=variable vmaxpu=1.5 vminpu=0.92
New Load.BT_1337636_M2 bus1=UC1337636.1.4 phases=1 conn=Wye model=3 kv=0.22 kw=0.1975365 pf=0.92 daily=RU2_DU status=variable vmaxpu=1.5 vminpu=0.92
New Load.BT_1326329_M1 bus1=UC1326329.2.4 phases=1 conn=Wye model=2 kv=0.22 kw=0.223194 pf=0.92 daily=RU5_DU status=variable vmaxpu=1.5 vminpu=0.92
New Load.BT_1326329_M2 bus1=UC1326329.2.4 phases=1 conn=Wye model=3 kv=0.22 kw=0.223194 pf=0.92 daily=RU5_DU status=variable vmaxpu=1.5 vminpu=0.92
New Load.BT_1314127_M1 bus1=UC1314127.1.4 phases=1 conn=Wye model=2 kv=0.22 kw=0.254018 pf=0.92 daily=RU8_DU status=variable vmaxpu=1.5 vminpu=0.92
New Load.BT_1314127_M2 bus1=UC1314127.1.4 phases=1 conn=Wye model=3 kv=0.22 kw=0.254018 pf=0.92 daily=RU8_DU status=variable vmaxpu=1.5 vminpu=0.92
New Load.BT_1317424_M1 bus1=UC1317424.1.4 phases=1 conn=Wye model=2 kv=0.22 kw=0.1229315 pf=0.92 daily=RU4_DU status=variable vmaxpu=1.5 vminpu=0.92
New Load.BT_1317424_M2 bus1=UC1317424.1.4 phases=1 conn=Wye model=3 kv=0.22 kw=0.1229315 pf=0.92 daily=RU4_DU status=variable vmaxpu=1.5 vminpu=0.92
New Load.BT_1314032_M1 bus1=UC1314032.2.4 phases=1 conn=Wye model=2 kv=0.22 kw=0.0612405 pf=0.92 daily=RU3_DU status=variable vmaxpu=1.5 vminpu=0.92
New Load.BT_1314032_M2 bus1=UC1314032.2.4 phases=1 conn=Wye model=3 kv=0.22 kw=0.0612405 pf=0.92 daily=RU3_DU status=variable vmaxpu=1.5 vminpu=0.92
New Load.BT_1314033_M1 bus1=UC1314033.1.4 phases=1 conn=Wye model=2 kv=0.22 kw=0.3539045 pf=0.92 daily=RU5_DU status=variable vmaxpu=1.5 vminpu=0.92
New Load.BT_1314033_M2 bus1=UC1314033.1.4 phases=1 conn=Wye model=3 kv=0.22 kw=0.3539045 pf=0.92 daily=RU5_DU status=variable vmaxpu=1.5 vminpu=0.92
New Load.BT_1314135_M1 bus1=UC1314135.1.4 phases=1 conn=Wye model=2 kv=0.22 kw=0.658484 pf=0.92 daily=RU5_DU status=variable vmaxpu=1.5 vminpu=0.92
New Load.BT_1314135_M2 bus1=UC1314135.1.4 phases=1 conn=Wye model=3 kv=0.22 kw=0.658484 pf=0.92 daily=RU5_DU status=variable vmaxpu=1.5 vminpu=0.92
New Load.BT_1327240_M1 bus1=UC1327240.2.4 phases=1 conn=Wye model=2 kv=0.22 kw=0.287326 pf=0.92 daily=RU2_DU status=variable vmaxpu=1.5 vminpu=0.92
New Load.BT_1327240_M2 bus1=UC1327240.2.4 phases=1 conn=Wye model=3 kv=0.22 kw=0.287326 pf=0.92 daily=RU2_DU status=variable vmaxpu=1.5 vminpu=0.92
New Load.BT_1327509_M1 bus1=UC1327509.1.4 phases=1 conn=Wye model=2 kv=0.22 kw=0.1338545 pf=0.92 daily=RU3_DU status=variable vmaxpu=1.5 vminpu=0.92
New Load.BT_1327509_M2 bus1=UC1327509.1.4 phases=1 conn=Wye model=3 kv=0.22 kw=0.1338545 pf=0.92 daily=RU3_DU status=variable vmaxpu=1.5 vminpu=0.92
New Load.BT_1328947_M1 bus1=UC1328947.1.4 phases=1 conn=Wye model=2 kv=0.22 kw=0.050156 pf=0.92 daily=RU4_DU status=variable vmaxpu=1.5 vminpu=0.92
New Load.BT_1328947_M2 bus1=UC1328947.1.4 phases=1 conn=Wye model=3 kv=0.22 kw=0.050156 pf=0.92 daily=RU4_DU status=variable vmaxpu=1.5 vminpu=0.92
New Load.BT_1322563_M1 bus1=UC1322563.1.4 phases=1 conn=Wye model=2 kv=0.22 kw=0.077775 pf=0.92 daily=PP6_DU status=variable vmaxpu=1.5 vminpu=0.92
New Load.BT_1322563_M2 bus1=UC1322563.1.4 phases=1 conn=Wye model=3 kv=0.22 kw=0.077775 pf=0.92 daily=PP6_DU status=variable vmaxpu=1.5 vminpu=0.92
New Load.BT_1318382_M1 bus1=UC1318382.1.4 phases=1 conn=Wye model=2 kv=0.22 kw=0.554349 pf=0.92 daily=RU8_DU status=variable vmaxpu=1.5 vminpu=0.92
New Load.BT_1318382_M2 bus1=UC1318382.1.4 phases=1 conn=Wye model=3 kv=0.22 kw=0.554349 pf=0.92 daily=RU8_DU status=variable vmaxpu=1.5 vminpu=0.92
New Load.BT_1314142_M1 bus1=UC1314142.1.4 phases=1 conn=Wye model=2 kv=0.22 kw=0.208218 pf=0.92 daily=RU3_DU status=variable vmaxpu=1.5 vminpu=0.92
New Load.BT_1314142_M2 bus1=UC1314142.1.4 phases=1 conn=Wye model=3 kv=0.22 kw=0.208218 pf=0.92 daily=RU3_DU status=variable vmaxpu=1.5 vminpu=0.92
New Load.BT_1314139_M1 bus1=UC1314139.2.4 phases=1 conn=Wye model=2 kv=0.22 kw=0.4771615 pf=0.92 daily=RU8_DU status=variable vmaxpu=1.5 vminpu=0.92
New Load.BT_1314139_M2 bus1=UC1314139.2.4 phases=1 conn=Wye model=3 kv=0.22 kw=0.4771615 pf=0.92 daily=RU8_DU status=variable vmaxpu=1.5 vminpu=0.92
New Load.BT_1314140_M1 bus1=UC1314140.1.4 phases=1 conn=Wye model=2 kv=0.22 kw=0.4135785 pf=0.92 daily=RU7_DU status=variable vmaxpu=1.5 vminpu=0.92
New Load.BT_1314140_M2 bus1=UC1314140.1.4 phases=1 conn=Wye model=3 kv=0.22 kw=0.4135785 pf=0.92 daily=RU7_DU status=variable vmaxpu=1.5 vminpu=0.92
New Load.BT_1330643_M1 bus1=UC1330643.1.4 phases=1 conn=Wye model=2 kv=0.22 kw=0.20515 pf=0.92 daily=RU6_DU status=variable vmaxpu=1.5 vminpu=0.92
New Load.BT_1330643_M2 bus1=UC1330643.1.4 phases=1 conn=Wye model=3 kv=0.22 kw=0.20515 pf=0.92 daily=RU6_DU status=variable vmaxpu=1.5 vminpu=0.92
New Load.BT_1331074_M1 bus1=UC1331074.1.2.4 phases=1 conn=Delta model=2 kv=0.44 kw=0.6560055 pf=0.92 daily=RU1_DU status=variable vmaxpu=1.5 vminpu=0.92
New Load.BT_1331074_M2 bus1=UC1331074.1.2.4 phases=1 conn=Delta model=3 kv=0.44 kw=0.6560055 pf=0.92 daily=RU1_DU status=variable vmaxpu=1.5 vminpu=0.92
New Load.BT_1320150_M1 bus1=UC1320150.1.2.4 phases=1 conn=Delta model=2 kv=0.22 kw=0.2881785 pf=0.92 daily=RU7_DU status=variable vmaxpu=1.5 vminpu=0.92
New Load.BT_1320150_M2 bus1=UC1320150.1.2.4 phases=1 conn=Delta model=3 kv=0.22 kw=0.2881785 pf=0.92 daily=RU7_DU status=variable vmaxpu=1.5 vminpu=0.92
New Load.BT_1314017_M1 bus1=UC1314017.1.2.4 phases=1 conn=Delta model=2 kv=0.44 kw=0.499616 pf=0.92 daily=RU8_DU status=variable vmaxpu=1.5 vminpu=0.92
New Load.BT_1314017_M2 bus1=UC1314017.1.2.4 phases=1 conn=Delta model=3 kv=0.44 kw=0.499616 pf=0.92 daily=RU8_DU status=variable vmaxpu=1.5 vminpu=0.92
New Load.BT_1314018_M1 bus1=UC1314018.1.2.4 phases=1 conn=Delta model=2 kv=0.44 kw=0.313959 pf=0.92 daily=RU6_DU status=variable vmaxpu=1.5 vminpu=0.92
New Load.BT_1314018_M2 bus1=UC1314018.1.2.4 phases=1 conn=Delta model=3 kv=0.44 kw=0.313959 pf=0.92 daily=RU6_DU status=variable vmaxpu=1.5 vminpu=0.92
New Load.BT_1331928_M1 bus1=UC1331928.2.4 phases=1 conn=Wye model=2 kv=0.22 kw=0.34519 pf=0.92 daily=RU2_DU status=variable vmaxpu=1.5 vminpu=0.92
New Load.BT_1331928_M2 bus1=UC1331928.2.4 phases=1 conn=Wye model=3 kv=0.22 kw=0.34519 pf=0.92 daily=RU2_DU status=variable vmaxpu=1.5 vminpu=0.92
New Load.BT_1333497_M1 bus1=UC1333497.2.4 phases=1 conn=Wye model=2 kv=0.22 kw=0.0701705 pf=0.92 daily=RU8_DU status=variable vmaxpu=1.5 vminpu=0.92
New Load.BT_1333497_M2 bus1=UC1333497.2.4 phases=1 conn=Wye model=3 kv=0.22 kw=0.0701705 pf=0.92 daily=RU8_DU status=variable vmaxpu=1.5 vminpu=0.92
New Load.BT_1314015_M1 bus1=UC1314015.1.4 phases=1 conn=Wye model=2 kv=0.22 kw=0.6824645 pf=0.92 daily=RU7_DU status=variable vmaxpu=1.5 vminpu=0.92
New Load.BT_1314015_M2 bus1=UC1314015.1.4 phases=1 conn=Wye model=3 kv=0.22 kw=0.6824645 pf=0.92 daily=RU7_DU status=variable vmaxpu=1.5 vminpu=0.92
New Load.BT_1314016_M1 bus1=UC1314016.1.4 phases=1 conn=Wye model=2 kv=0.22 kw=0.2049805 pf=0.92 daily=RU7_DU status=variable vmaxpu=1.5 vminpu=0.92
New Load.BT_1314016_M2 bus1=UC1314016.1.4 phases=1 conn=Wye model=3 kv=0.22 kw=0.2049805 pf=0.92 daily=RU7_DU status=variable vmaxpu=1.5 vminpu=0.92
New Load.BT_1314220_M1 bus1=UC1314220.1.4 phases=1 conn=Wye model=2 kv=0.22 kw=0.6287305 pf=0.92 daily=RU8_DU status=variable vmaxpu=1.5 vminpu=0.92
New Load.BT_1314220_M2 bus1=UC1314220.1.4 phases=1 conn=Wye model=3 kv=0.22 kw=0.6287305 pf=0.92 daily=RU8_DU status=variable vmaxpu=1.5 vminpu=0.92
New Load.BT_1314144_M1 bus1=UC1314144.2.4 phases=1 conn=Wye model=2 kv=0.22 kw=0.338223 pf=0.92 daily=RU8_DU status=variable vmaxpu=1.5 vminpu=0.92
New Load.BT_1314144_M2 bus1=UC1314144.2.4 phases=1 conn=Wye model=3 kv=0.22 kw=0.338223 pf=0.92 daily=RU8_DU status=variable vmaxpu=1.5 vminpu=0.92
New Load.BT_1314145_M1 bus1=UC1314145.1.4 phases=1 conn=Wye model=2 kv=0.22 kw=0.749424 pf=0.92 daily=RU8_DU status=variable vmaxpu=1.5 vminpu=0.92
New Load.BT_1314145_M2 bus1=UC1314145.1.4 phases=1 conn=Wye model=3 kv=0.22 kw=0.749424 pf=0.92 daily=RU8_DU status=variable vmaxpu=1.5 vminpu=0.92
New Load.BT_1320505_M1 bus1=UC1320505.1.4 phases=1 conn=Wye model=2 kv=0.22 kw=0.179637 pf=0.92 daily=RU8_DU status=variable vmaxpu=1.5 vminpu=0.92
New Load.BT_1320505_M2 bus1=UC1320505.1.4 phases=1 conn=Wye model=3 kv=0.22 kw=0.179637 pf=0.92 daily=RU8_DU status=variable vmaxpu=1.5 vminpu=0.92
New Load.BT_1314104_M1 bus1=UC1314104.2.4 phases=1 conn=Wye model=2 kv=0.22 kw=0.3225725 pf=0.92 daily=RU4_DU status=variable vmaxpu=1.5 vminpu=0.92
New Load.BT_1314104_M2 bus1=UC1314104.2.4 phases=1 conn=Wye model=3 kv=0.22 kw=0.3225725 pf=0.92 daily=RU4_DU status=variable vmaxpu=1.5 vminpu=0.92
New Load.BT_1314022_M1 bus1=UC1314022.1.4 phases=1 conn=Wye model=2 kv=0.22 kw=0.1156095 pf=0.92 daily=RU6_DU status=variable vmaxpu=1.5 vminpu=0.92
New Load.BT_1314022_M2 bus1=UC1314022.1.4 phases=1 conn=Wye model=3 kv=0.22 kw=0.1156095 pf=0.92 daily=RU6_DU status=variable vmaxpu=1.5 vminpu=0.92
New Load.BT_1333137_M1 bus1=UC1333137.1.4 phases=1 conn=Wye model=2 kv=0.22 kw=0.0275365 pf=0.92 daily=RU4_DU status=variable vmaxpu=1.5 vminpu=0.92
New Load.BT_1333137_M2 bus1=UC1333137.1.4 phases=1 conn=Wye model=3 kv=0.22 kw=0.0275365 pf=0.92 daily=RU4_DU status=variable vmaxpu=1.5 vminpu=0.92
New Load.BT_1314131_M1 bus1=UC1314131.1.4 phases=1 conn=Wye model=2 kv=0.22 kw=0.081804 pf=0.92 daily=RU1_DU status=variable vmaxpu=1.5 vminpu=0.92
New Load.BT_1314131_M2 bus1=UC1314131.1.4 phases=1 conn=Wye model=3 kv=0.22 kw=0.081804 pf=0.92 daily=RU1_DU status=variable vmaxpu=1.5 vminpu=0.92
New Load.BT_1337550_M1 bus1=UC1337550.1.4 phases=1 conn=Wye model=2 kv=0.22 kw=0.4771615 pf=0.92 daily=RU8_DU status=variable vmaxpu=1.5 vminpu=0.92
New Load.BT_1337550_M2 bus1=UC1337550.1.4 phases=1 conn=Wye model=3 kv=0.22 kw=0.4771615 pf=0.92 daily=RU8_DU status=variable vmaxpu=1.5 vminpu=0.92
New Load.BT_1337633_M1 bus1=UC1337633.2.4 phases=1 conn=Wye model=2 kv=0.22 kw=0.221861 pf=0.92 daily=RU7_DU status=variable vmaxpu=1.5 vminpu=0.92
New Load.BT_1337633_M2 bus1=UC1337633.2.4 phases=1 conn=Wye model=3 kv=0.22 kw=0.221861 pf=0.92 daily=RU7_DU status=variable vmaxpu=1.5 vminpu=0.92
New Load.BT_1337634_M1 bus1=UC1337634.2.4 phases=1 conn=Wye model=2 kv=0.22 kw=0.086815 pf=0.92 daily=RU7_DU status=variable vmaxpu=1.5 vminpu=0.92
New Load.BT_1337634_M2 bus1=UC1337634.2.4 phases=1 conn=Wye model=3 kv=0.22 kw=0.086815 pf=0.92 daily=RU7_DU status=variable vmaxpu=1.5 vminpu=0.92
New Load.BT_1336365_M1 bus1=UC1336365.1.4 phases=1 conn=Wye model=2 kv=0.22 kw=0.3966975 pf=0.92 daily=RU7_DU status=variable vmaxpu=1.5 vminpu=0.92
New Load.BT_1336365_M2 bus1=UC1336365.1.4 phases=1 conn=Wye model=3 kv=0.22 kw=0.3966975 pf=0.92 daily=RU7_DU status=variable vmaxpu=1.5 vminpu=0.92
New Load.BT_1332886_M1 bus1=UC1332886.1.4 phases=1 conn=Wye model=2 kv=0.22 kw=0.3761005 pf=0.92 daily=RU5_DU status=variable vmaxpu=1.5 vminpu=0.92
New Load.BT_1332886_M2 bus1=UC1332886.1.4 phases=1 conn=Wye model=3 kv=0.22 kw=0.3761005 pf=0.92 daily=RU5_DU status=variable vmaxpu=1.5 vminpu=0.92
New Load.BT_1333500_M1 bus1=UC1333500.1.4 phases=1 conn=Wye model=2 kv=0.22 kw=0.3672305 pf=0.92 daily=RU6_DU status=variable vmaxpu=1.5 vminpu=0.92
New Load.BT_1333500_M2 bus1=UC1333500.1.4 phases=1 conn=Wye model=3 kv=0.22 kw=0.3672305 pf=0.92 daily=RU6_DU status=variable vmaxpu=1.5 vminpu=0.92
New Load.BT_1314026_M1 bus1=UC1314026.2.4 phases=1 conn=Wye model=2 kv=0.22 kw=0.223067 pf=0.92 daily=RU7_DU status=variable vmaxpu=1.5 vminpu=0.92
New Load.BT_1314026_M2 bus1=UC1314026.2.4 phases=1 conn=Wye model=3 kv=0.22 kw=0.223067 pf=0.92 daily=RU7_DU status=variable vmaxpu=1.5 vminpu=0.92
New Load.BT_1334487_M1 bus1=UC1334487.1.4 phases=1 conn=Wye model=2 kv=0.22 kw=0.4656535 pf=0.92 daily=RU1_DU status=variable vmaxpu=1.5 vminpu=0.92
New Load.BT_1334487_M2 bus1=UC1334487.1.4 phases=1 conn=Wye model=3 kv=0.22 kw=0.4656535 pf=0.92 daily=RU1_DU status=variable vmaxpu=1.5 vminpu=0.92
New Load.BT_1335104_M1 bus1=UC1335104.2.4 phases=1 conn=Wye model=2 kv=0.22 kw=0.644488 pf=0.92 daily=RU2_DU status=variable vmaxpu=1.5 vminpu=0.92
New Load.BT_1335104_M2 bus1=UC1335104.2.4 phases=1 conn=Wye model=3 kv=0.22 kw=0.644488 pf=0.92 daily=RU2_DU status=variable vmaxpu=1.5 vminpu=0.92
New Load.BT_1335799_M1 bus1=UC1335799.1.2.3.4 phases=3 conn=Delta model=2 kv=0.38 kw=0.3146305 pf=0.92 daily=RU1_DU status=variable vmaxpu=1.5 vminpu=0.92
New Load.BT_1335799_M2 bus1=UC1335799.1.2.3.4 phases=3 conn=Delta model=3 kv=0.38 kw=0.3146305 pf=0.92 daily=RU1_DU status=variable vmaxpu=1.5 vminpu=0.92
New Load.BT_1336087_M1 bus1=UC1336087.1.4 phases=1 conn=Wye model=2 kv=0.22 kw=0.1179865 pf=0.92 daily=RU1_DU status=variable vmaxpu=1.5 vminpu=0.92
New Load.BT_1336087_M2 bus1=UC1336087.1.4 phases=1 conn=Wye model=3 kv=0.22 kw=0.1179865 pf=0.92 daily=RU1_DU status=variable vmaxpu=1.5 vminpu=0.92
New Load.BT_1335650_M1 bus1=UC1335650.2.4 phases=1 conn=Wye model=2 kv=0.22 kw=0.0600715 pf=0.92 daily=RU6_DU status=variable vmaxpu=1.5 vminpu=0.92
New Load.BT_1335650_M2 bus1=UC1335650.2.4 phases=1 conn=Wye model=3 kv=0.22 kw=0.0600715 pf=0.92 daily=RU6_DU status=variable vmaxpu=1.5 vminpu=0.92
New Load.BT_1336944_M1 bus1=UC1336944.1.4 phases=1 conn=Wye model=2 kv=0.22 kw=0.004823 pf=0.92 daily=RU7_DU status=variable vmaxpu=1.5 vminpu=0.92
New Load.BT_1336944_M2 bus1=UC1336944.1.4 phases=1 conn=Wye model=3 kv=0.22 kw=0.004823 pf=0.92 daily=RU7_DU status=variable vmaxpu=1.5 vminpu=0.92
New Load.BT_1314098_M1 bus1=UC1314098.1.2.3.4 phases=3 conn=Delta model=2 kv=0.38 kw=0.856871 pf=0.92 daily=RU6_DU status=variable vmaxpu=1.5 vminpu=0.92
New Load.BT_1314098_M2 bus1=UC1314098.1.2.3.4 phases=3 conn=Delta model=3 kv=0.38 kw=0.856871 pf=0.92 daily=RU6_DU status=variable vmaxpu=1.5 vminpu=0.92
New Load.BT_1336552_M1 bus1=UC1336552.1.4 phases=1 conn=Wye model=2 kv=0.22 kw=0.343195 pf=0.92 daily=RU2_DU status=variable vmaxpu=1.5 vminpu=0.92
New Load.BT_1336552_M2 bus1=UC1336552.1.4 phases=1 conn=Wye model=3 kv=0.22 kw=0.343195 pf=0.92 daily=RU2_DU status=variable vmaxpu=1.5 vminpu=0.92
New Load.BT_1338722_M1 bus1=UC1338722.1.4 phases=1 conn=Wye model=2 kv=0.22 kw=0 pf=0.92 daily=RU2_DU status=variable vmaxpu=1.5 vminpu=0.92
New Load.BT_1338722_M2 bus1=UC1338722.1.4 phases=1 conn=Wye model=3 kv=0.22 kw=0 pf=0.92 daily=RU2_DU status=variable vmaxpu=1.5 vminpu=0.92
New Load.BT_1314107_M1 bus1=UC1314107.1.2.4 phases=1 conn=Delta model=2 kv=0.44 kw=0.57119 pf=0.92 daily=RU8_DU status=variable vmaxpu=1.5 vminpu=0.92
New Load.BT_1314107_M2 bus1=UC1314107.1.2.4 phases=1 conn=Delta model=3 kv=0.44 kw=0.57119 pf=0.92 daily=RU8_DU status=variable vmaxpu=1.5 vminpu=0.92
New Load.BT_1314110_M1 bus1=UC1314110.2.4 phases=1 conn=Wye model=2 kv=0.22 kw=0.426998 pf=0.92 daily=RU2_DU status=variable vmaxpu=1.5 vminpu=0.92
New Load.BT_1314110_M2 bus1=UC1314110.2.4 phases=1 conn=Wye model=3 kv=0.22 kw=0.426998 pf=0.92 daily=RU2_DU status=variable vmaxpu=1.5 vminpu=0.92
New Load.BT_317403_M1 bus1=UC317403.1.4 phases=1 conn=Wye model=2 kv=0.22 kw=0.501836 pf=0.92 daily=RU1_DU status=variable vmaxpu=1.5 vminpu=0.92
New Load.BT_317403_M2 bus1=UC317403.1.4 phases=1 conn=Wye model=3 kv=0.22 kw=0.501836 pf=0.92 daily=RU1_DU status=variable vmaxpu=1.5 vminpu=0.92
New Load.BT_1314102_M1 bus1=UC1314102.2.4 phases=1 conn=Wye model=2 kv=0.22 kw=0.401233 pf=0.92 daily=RU6_DU status=variable vmaxpu=1.5 vminpu=0.92
New Load.BT_1314102_M2 bus1=UC1314102.2.4 phases=1 conn=Wye model=3 kv=0.22 kw=0.401233 pf=0.92 daily=RU6_DU status=variable vmaxpu=1.5 vminpu=0.92
New Load.BT_1337639_M1 bus1=UC1337639.1.2.4 phases=1 conn=Delta model=2 kv=0.44 kw=0.1519265 pf=0.92 daily=RU7_DU status=variable vmaxpu=1.5 vminpu=0.92
New Load.BT_1337639_M2 bus1=UC1337639.1.2.4 phases=1 conn=Delta model=3 kv=0.44 kw=0.1519265 pf=0.92 daily=RU7_DU status=variable vmaxpu=1.5 vminpu=0.92
New Load.BT_1329808_M1 bus1=UC1329808.2.4 phases=1 conn=Wye model=2 kv=0.22 kw=0.11113 pf=0.92 daily=RU4_DU status=variable vmaxpu=1.5 vminpu=0.92
New Load.BT_1329808_M2 bus1=UC1329808.2.4 phases=1 conn=Wye model=3 kv=0.22 kw=0.11113 pf=0.92 daily=RU4_DU status=variable vmaxpu=1.5 vminpu=0.92
New Load.BT_1314021_M1 bus1=UC1314021.2.4 phases=1 conn=Wye model=2 kv=0.22 kw=0.580798 pf=0.92 daily=RU5_DU status=variable vmaxpu=1.5 vminpu=0.92
New Load.BT_1314021_M2 bus1=UC1314021.2.4 phases=1 conn=Wye model=3 kv=0.22 kw=0.580798 pf=0.92 daily=RU5_DU status=variable vmaxpu=1.5 vminpu=0.92
New Load.BT_338231_M1 bus1=UC338231.2.4 phases=1 conn=Wye model=2 kv=0.22 kw=0.104548 pf=0.92 daily=RE7_DU status=variable vmaxpu=1.5 vminpu=0.92
New Load.BT_338231_M2 bus1=UC338231.2.4 phases=1 conn=Wye model=3 kv=0.22 kw=0.104548 pf=0.92 daily=RE7_DU status=variable vmaxpu=1.5 vminpu=0.92
New Load.BT_1314134_M1 bus1=UC1314134.2.4 phases=1 conn=Wye model=2 kv=0.22 kw=0.226534 pf=0.92 daily=RU1_DU status=variable vmaxpu=1.5 vminpu=0.92
New Load.BT_1314134_M2 bus1=UC1314134.2.4 phases=1 conn=Wye model=3 kv=0.22 kw=0.226534 pf=0.92 daily=RU1_DU status=variable vmaxpu=1.5 vminpu=0.92
New Load.BT_1314237_M1 bus1=UC1314237.1.4 phases=1 conn=Wye model=2 kv=0.22 kw=0.283335 pf=0.92 daily=RU2_DU status=variable vmaxpu=1.5 vminpu=0.92
New Load.BT_1314237_M2 bus1=UC1314237.1.4 phases=1 conn=Wye model=3 kv=0.22 kw=0.283335 pf=0.92 daily=RU2_DU status=variable vmaxpu=1.5 vminpu=0.92
New Load.BT_1338320_M1 bus1=UC1338320.1.2.4 phases=1 conn=Delta model=2 kv=0.44 kw=0.3649715 pf=0.92 daily=RU1_DU status=variable vmaxpu=1.5 vminpu=0.92
New Load.BT_1338320_M2 bus1=UC1338320.1.2.4 phases=1 conn=Delta model=3 kv=0.44 kw=0.3649715 pf=0.92 daily=RU1_DU status=variable vmaxpu=1.5 vminpu=0.92
New Load.BT_1338459_M1 bus1=UC1338459.1.2.3.4 phases=3 conn=Delta model=2 kv=0.38 kw=0 pf=0.92 daily=RU2_DU status=variable vmaxpu=1.5 vminpu=0.92
New Load.BT_1338459_M2 bus1=UC1338459.1.2.3.4 phases=3 conn=Delta model=3 kv=0.38 kw=0 pf=0.92 daily=RU2_DU status=variable vmaxpu=1.5 vminpu=0.92
New Load.BT_1338644_M1 bus1=UC1338644.1.4 phases=1 conn=Wye model=2 kv=0.219393102 kw=0 pf=0.92 daily=RU3_DU status=variable vmaxpu=1.5 vminpu=0.92
New Load.BT_1338644_M2 bus1=UC1338644.1.4 phases=1 conn=Wye model=3 kv=0.219393102 kw=0 pf=0.92 daily=RU3_DU status=variable vmaxpu=1.5 vminpu=0.92
New Load.BT_1338313_M1 bus1=UC1338313.1.2.3.4 phases=3 conn=Delta model=2 kv=0.38 kw=0 pf=0.92 daily=RE8_DU status=variable vmaxpu=1.5 vminpu=0.92
New Load.BT_1338313_M2 bus1=UC1338313.1.2.3.4 phases=3 conn=Delta model=3 kv=0.38 kw=0 pf=0.92 daily=RE8_DU status=variable vmaxpu=1.5 vminpu=0.92
New Load.BT_1338784_M1 bus1=UC1338784.1.2.4 phases=1 conn=Delta model=2 kv=0.44 kw=0 pf=0.92 daily=RU4_DU status=variable vmaxpu=1.5 vminpu=0.92
New Load.BT_1338784_M2 bus1=UC1338784.1.2.4 phases=1 conn=Delta model=3 kv=0.44 kw=0 pf=0.92 daily=RU4_DU status=variable vmaxpu=1.5 vminpu=0.92
New Load.BT_1338891_M1 bus1=UC1338891.1.2.3.4 phases=3 conn=Delta model=2 kv=0.38 kw=0 pf=0.92 daily=RU2_DU status=variable vmaxpu=1.5 vminpu=0.92
New Load.BT_1338891_M2 bus1=UC1338891.1.2.3.4 phases=3 conn=Delta model=3 kv=0.38 kw=0 pf=0.92 daily=RU2_DU status=variable vmaxpu=1.5 vminpu=0.92
New Load.BT_1312592_M1 bus1=UC1312592.1.4 phases=1 conn=Wye model=2 kv=0.22 kw=0.176038 pf=0.92 daily=RU4_DU status=variable vmaxpu=1.5 vminpu=0.92
New Load.BT_1312592_M2 bus1=UC1312592.1.4 phases=1 conn=Wye model=3 kv=0.22 kw=0.176038 pf=0.92 daily=RU4_DU status=variable vmaxpu=1.5 vminpu=0.92
New Load.BT_337540_M1 bus1=UC337540.2.4 phases=1 conn=Wye model=2 kv=0.22 kw=0.132766 pf=0.92 daily=RU4_DU status=variable vmaxpu=1.5 vminpu=0.92
New Load.BT_337540_M2 bus1=UC337540.2.4 phases=1 conn=Wye model=3 kv=0.22 kw=0.132766 pf=0.92 daily=RU4_DU status=variable vmaxpu=1.5 vminpu=0.92
New Load.BT_317407_M1 bus1=UC317407.2.4 phases=1 conn=Wye model=2 kv=0.22 kw=0.0953945 pf=0.92 daily=RU4_DU status=variable vmaxpu=1.5 vminpu=0.92
New Load.BT_317407_M2 bus1=UC317407.2.4 phases=1 conn=Wye model=3 kv=0.22 kw=0.0953945 pf=0.92 daily=RU4_DU status=variable vmaxpu=1.5 vminpu=0.92
New Load.BT_312156_M1 bus1=UC312156.2.4 phases=1 conn=Wye model=2 kv=0.22 kw=0.0736725 pf=0.92 daily=RU6_DU status=variable vmaxpu=1.5 vminpu=0.92
New Load.BT_312156_M2 bus1=UC312156.2.4 phases=1 conn=Wye model=3 kv=0.22 kw=0.0736725 pf=0.92 daily=RU6_DU status=variable vmaxpu=1.5 vminpu=0.92
New Load.BT_1314096_M1 bus1=UC1314096.2.4 phases=1 conn=Wye model=2 kv=0.22 kw=0.6634165 pf=0.92 daily=RU5_DU status=variable vmaxpu=1.5 vminpu=0.92
New Load.BT_1314096_M2 bus1=UC1314096.2.4 phases=1 conn=Wye model=3 kv=0.22 kw=0.6634165 pf=0.92 daily=RU5_DU status=variable vmaxpu=1.5 vminpu=0.92
New Load.BT_1314097_M1 bus1=UC1314097.1.2.4 phases=1 conn=Delta model=2 kv=0.44 kw=0.830822 pf=0.92 daily=RU8_DU status=variable vmaxpu=1.5 vminpu=0.92
New Load.BT_1314097_M2 bus1=UC1314097.1.2.4 phases=1 conn=Delta model=3 kv=0.44 kw=0.830822 pf=0.92 daily=RU8_DU status=variable vmaxpu=1.5 vminpu=0.92
New Load.BT_1314027_M1 bus1=UC1314027.1.2.4 phases=1 conn=Delta model=2 kv=0.44 kw=1.0036455 pf=0.92 daily=RU2_DU status=variable vmaxpu=1.5 vminpu=0.92
New Load.BT_1314027_M2 bus1=UC1314027.1.2.4 phases=1 conn=Delta model=3 kv=0.44 kw=1.0036455 pf=0.92 daily=RU2_DU status=variable vmaxpu=1.5 vminpu=0.92
New Load.BT_1913329_M1 bus1=UC1913329.2.4 phases=1 conn=Wye model=2 kv=0.22 kw=0.051914 pf=0.92 daily=RU1_DU status=variable vmaxpu=1.5 vminpu=0.92
New Load.BT_1913329_M2 bus1=UC1913329.2.4 phases=1 conn=Wye model=3 kv=0.22 kw=0.051914 pf=0.92 daily=RU1_DU status=variable vmaxpu=1.5 vminpu=0.92
New Load.BT_1932209_M1 bus1=UC1932209.1.4 phases=1 conn=Wye model=2 kv=0.22 kw=0.0363875 pf=0.92 daily=RU4_DU status=variable vmaxpu=1.5 vminpu=0.92
New Load.BT_1932209_M2 bus1=UC1932209.1.4 phases=1 conn=Wye model=3 kv=0.22 kw=0.0363875 pf=0.92 daily=RU4_DU status=variable vmaxpu=1.5 vminpu=0.92
New Load.BT_1937131_M1 bus1=UC1937131.2.4 phases=1 conn=Wye model=2 kv=0.22 kw=0.173071 pf=0.92 daily=RE5_DU status=variable vmaxpu=1.5 vminpu=0.92
New Load.BT_1937131_M2 bus1=UC1937131.2.4 phases=1 conn=Wye model=3 kv=0.22 kw=0.173071 pf=0.92 daily=RE5_DU status=variable vmaxpu=1.5 vminpu=0.92
New Load.BT_1314093_M1 bus1=UC1314093.1.2.4 phases=1 conn=Delta model=2 kv=0.44 kw=0.1510225 pf=0.92 daily=RU1_DU status=variable vmaxpu=1.5 vminpu=0.92
New Load.BT_1314093_M2 bus1=UC1314093.1.2.4 phases=1 conn=Delta model=3 kv=0.44 kw=0.1510225 pf=0.92 daily=RU1_DU status=variable vmaxpu=1.5 vminpu=0.92
New Load.BT_1314094_M1 bus1=UC1314094.2.4 phases=1 conn=Wye model=2 kv=0.22 kw=0.165181 pf=0.92 daily=RU1_DU status=variable vmaxpu=1.5 vminpu=0.92
New Load.BT_1314094_M2 bus1=UC1314094.2.4 phases=1 conn=Wye model=3 kv=0.22 kw=0.165181 pf=0.92 daily=RU1_DU status=variable vmaxpu=1.5 vminpu=0.92
New Load.BT_1323673_M1 bus1=UC1323673.1.4 phases=1 conn=Wye model=2 kv=0.22 kw=0.074806 pf=0.92 daily=RU6_DU status=variable vmaxpu=1.5 vminpu=0.92
New Load.BT_1323673_M2 bus1=UC1323673.1.4 phases=1 conn=Wye model=3 kv=0.22 kw=0.074806 pf=0.92 daily=RU6_DU status=variable vmaxpu=1.5 vminpu=0.92
New Load.BT_1317420_M1 bus1=UC1317420.1.4 phases=1 conn=Wye model=2 kv=0.22 kw=0.0394595 pf=0.92 daily=RU5_DU status=variable vmaxpu=1.5 vminpu=0.92
New Load.BT_1317420_M2 bus1=UC1317420.1.4 phases=1 conn=Wye model=3 kv=0.22 kw=0.0394595 pf=0.92 daily=RU5_DU status=variable vmaxpu=1.5 vminpu=0.92
New Load.BT_1338892_M1 bus1=UC1338892.1.4 phases=1 conn=Wye model=2 kv=0.22 kw=0 pf=0.92 daily=RU7_DU status=variable vmaxpu=1.5 vminpu=0.92
New Load.BT_1338892_M2 bus1=UC1338892.1.4 phases=1 conn=Wye model=3 kv=0.22 kw=0 pf=0.92 daily=RU7_DU status=variable vmaxpu=1.5 vminpu=0.92
New Load.BT_1314028_M1 bus1=UC1314028.2.4 phases=1 conn=Wye model=2 kv=0.22 kw=0.113342 pf=0.92 daily=RU7_DU status=variable vmaxpu=1.5 vminpu=0.92
New Load.BT_1314028_M2 bus1=UC1314028.2.4 phases=1 conn=Wye model=3 kv=0.22 kw=0.113342 pf=0.92 daily=RU7_DU status=variable vmaxpu=1.5 vminpu=0.92
New Load.BT_1314132_M1 bus1=UC1314132.1.4 phases=1 conn=Wye model=2 kv=0.22 kw=0.293314 pf=0.92 daily=RU8_DU status=variable vmaxpu=1.5 vminpu=0.92
New Load.BT_1314132_M2 bus1=UC1314132.1.4 phases=1 conn=Wye model=3 kv=0.22 kw=0.293314 pf=0.92 daily=RU8_DU status=variable vmaxpu=1.5 vminpu=0.92
New Load.BT_1322550_M1 bus1=UC1322550.2.4 phases=1 conn=Wye model=2 kv=0.22 kw=0.2447705 pf=0.92 daily=RU7_DU status=variable vmaxpu=1.5 vminpu=0.92