New Load.BT_205687_M1 bus1=UC205687.1.4 phases=1 conn=Wye model=2 kv=0.22 kw=0.7482445 pf=0.92 daily=RU2_DU status=variable vmaxpu=1.5 vminpu=0.92
New Load.BT_205687_M2 bus1=UC205687.1.4 phases=1 conn=Wye model=3 kv=0.22 kw=0.7482445 pf=0.92 daily=RU2_DU status=variable vmaxpu=1.5 vminpu=0.92
New Load.BT_205645_M1 bus1=UC205645.2.4 phases=1 conn=Wye model=2 kv=0.22 kw=0.145955 pf=0.92 daily=RU8_DU status=variable vmaxpu=1.5 vminpu=0.92
New Load.BT_205645_M2 bus1=UC205645.2.4 phases=1 conn=Wye model=3 kv=0.22 kw=0.145955 pf=0.92 daily=RU8_DU status=variable vmaxpu=1.5 vminpu=0.92
New Load.BT_225281_M1 bus1=UC225281.1.4 phases=1 conn=Wye model=2 kv=0.22 kw=0.1782475 pf=0.92 daily=RE6_DU status=variable vmaxpu=1.5 vminpu=0.92
New Load.BT_225281_M2 bus1=UC225281.1.4 phases=1 conn=Wye model=3 kv=0.22 kw=0.1782475 pf=0.92 daily=RE6_DU status=variable vmaxpu=1.5 vminpu=0.92
New Load.BT_226211_M1 bus1=UC226211.1.4 phases=1 conn=Wye model=2 kv=0.22 kw=0.4230075 pf=0.92 daily=RU2_DU status=variable vmaxpu=1.5 vminpu=0.92
New Load.BT_226211_M2 bus1=UC226211.1.4 phases=1 conn=Wye model=3 kv=0.22 kw=0.4230075 pf=0.92 daily=RU2_DU status=variable vmaxpu=1.5 vminpu=0.92
New Load.BT_228376_M1 bus1=UC228376.1.4 phases=1 conn=Wye model=2 kv=0.22 kw=0.2989695 pf=0.92 daily=RU4_DU status=variable vmaxpu=1.5 vminpu=0.92
New Load.BT_228376_M2 bus1=UC228376.1.4 phases=1 conn=Wye model=3 kv=0.22 kw=0.2989695 pf=0.92 daily=RU4_DU status=variable vmaxpu=1.5 vminpu=0.92
New Load.BT_205668_M1 bus1=UC205668.1.4 phases=1 conn=Wye model=2 kv=0.22 kw=0.654432 pf=0.92 daily=RU1_DU status=variable vmaxpu=1.5 vminpu=0.92
New Load.BT_205668_M2 bus1=UC205668.1.4 phases=1 conn=Wye model=3 kv=0.22 kw=0.654432 pf=0.92 daily=RU1_DU status=variable vmaxpu=1.5 vminpu=0.92
New Load.BT_205669_M1 bus1=UC205669.2.4 phases=1 conn=Wye model=2 kv=0.22 kw=0.09536 pf=0.92 daily=RU3_DU status=variable vmaxpu=1.5 vminpu=0.92
New Load.BT_205669_M2 bus1=UC205669.2.4 phases=1 conn=Wye model=3 kv=0.22 kw=0.09536 pf=0.92 daily=RU3_DU status=variable vmaxpu=1.5 vminpu=0.92
New Load.BT_205670_M1 bus1=UC205670.2.4 phases=1 conn=Wye model=2 kv=0.22 kw=0.1032625 pf=0.92 daily=RU4_DU status=variable vmaxpu=1.5 vminpu=0.92
New Load.BT_205670_M2 bus1=UC205670.2.4 phases=1 conn=Wye model=3 kv=0.22 kw=0.1032625 pf=0.92 daily=RU4_DU status=variable vmaxpu=1.5 vminpu=0.92
New Load.BT_234954_M1 bus1=UC234954.1.4 phases=1 conn=Wye model=2 kv=0.22 kw=0.160003 pf=0.92 daily=RE2_DU status=variable vmaxpu=1.5 vminpu=0.92
New Load.BT_234954_M2 bus1=UC234954.1.4 phases=1 conn=Wye model=3 kv=0.22 kw=0.160003 pf=0.92 daily=RE2_DU status=variable vmaxpu=1.5 vminpu=0.92
New Load.BT_IP1619_M1 bus1=BT68861.1.4 phases=1 conn=Wye model=2 kv=0.22 kw=0.0801295 pf=0.92 daily=IP1_DU status=variable vmaxpu=1.5 vminpu=0.92
New Load.BT_IP1619_M2 bus1=BT68861.1.4 phases=1 conn=Wye model=3 kv=0.22 kw=0.0801295 pf=0.92 daily=IP1_DU status=variable vmaxpu=1.5 vminpu=0.92
New Load.BT_IP1620_M1 bus1=ET2_1149.1.4 phases=1 conn=Wye model=2 kv=0.22 kw=0.160259 pf=0.92 daily=IP1_DU status=variable vmaxpu=1.5 vminpu=0.92
New Load.BT_IP1620_M2 bus1=ET2_1149.1.4 phases=1 conn=Wye model=3 kv=0.22 kw=0.160259 pf=0.92 daily=IP1_DU status=variable vmaxpu=1.5 vminpu=0.92
New Load.BT_IP1621_M1 bus1=BT391581.1.4 phases=1 conn=Wye model=2 kv=0.22 kw=0.0801295 pf=0.92 daily=IP1_DU status=variable vmaxpu=1.5 vminpu=0.92
New Load.BT_IP1621_M2 bus1=BT391581.1.4 phases=1 conn=Wye model=3 kv=0.22 kw=0.0801295 pf=0.92 daily=IP1_DU status=variable vmaxpu=1.5 vminpu=0.92
New Load.BT_205689_M1 bus1=UC205689.1.4 phases=1 conn=Wye model=2 kv=0.22 kw=0 pf=0.92 daily=RU2_DU status=variable vmaxpu=1.5 vminpu=0.92
New Load.BT_205689_M2 bus1=UC205689.1.4 phases=1 conn=Wye model=3 kv=0.22 kw=0 pf=0.92 daily=RU2_DU status=variable vmaxpu=1.5 vminpu=0.92
New Load.BT_219381_M1 bus1=UC219381.1.4 phases=1 conn=Wye model=2 kv=0.22 kw=0.0997345 pf=0.92 daily=RU3_DU status=variable vmaxpu=1.5 vminpu=0.92
New Load.BT_219381_M2 bus1=UC219381.1.4 phases=1 conn=Wye model=3 kv=0.22 kw=0.0997345 pf=0.92 daily=RU3_DU status=variable vmaxpu=1.5 vminpu=0.92
New Load.BT_223644_M1 bus1=UC223644.1.4 phases=1 conn=Wye model=2 kv=0.22 kw=0.16062 pf=0.92 daily=RE5_DU status=variable vmaxpu=1.5 vminpu=0.92
New Load.BT_223644_M2 bus1=UC223644.1.4 phases=1 conn=Wye model=3 kv=0.22 kw=0.16062 pf=0.92 daily=RE5_DU status=variable vmaxpu=1.5 vminpu=0.92
New Load.BT_225286_M1 bus1=UC225286.1.4 phases=1 conn=Wye model=2 kv=0.22 kw=0.1627785 pf=0.92 daily=RU7_DU status=variable vmaxpu=1.5 vminpu=0.92
New Load.BT_225286_M2 bus1=UC225286.1.4 phases=1 conn=Wye model=3 kv=0.22 kw=0.1627785 pf=0.92 daily=RU7_DU status=variable vmaxpu=1.5 vminpu=0.92
New Load.BT_205737_M1 bus1=UC205737.2.4 phases=1 conn=Wye model=2 kv=0.22 kw=0.5905135 pf=0.92 daily=RE6_DU status=variable vmaxpu=1.5 vminpu=0.92
New Load.BT_205737_M2 bus1=UC205737.2.4 phases=1 conn=Wye model=3 kv=0.22 kw=0.5905135 pf=0.92 daily=RE6_DU status=variable vmaxpu=1.5 vminpu=0.92
New Load.BT_205734_M1 bus1=UC205734.1.2.4 phases=1 conn=Delta model=2 kv=0.44 kw=0.577563 pf=0.92 daily=RU7_DU status=variable vmaxpu=1.5 vminpu=0.92
New Load.BT_205734_M2 bus1=UC205734.1.2.4 phases=1 conn=Delta model=3 kv=0.44 kw=0.577563 pf=0.92 daily=RU7_DU status=variable vmaxpu=1.5 vminpu=0.92
New Load.BT_217024_M1 bus1=UC217024.1.4 phases=1 conn=Wye model=2 kv=0.22 kw=0.258034 pf=0.92 daily=RU7_DU status=variable vmaxpu=1.5 vminpu=0.92
New Load.BT_217024_M2 bus1=UC217024.1.4 phases=1 conn=Wye model=3 kv=0.22 kw=0.258034 pf=0.92 daily=RU7_DU status=variable vmaxpu=1.5 vminpu=0.92
New Load.BT_205727_M1 bus1=UC205727.1.4 phases=1 conn=Wye model=2 kv=0.22 kw=0.1541395 pf=0.92 daily=RU5_DU status=variable vmaxpu=1.5 vminpu=0.92
New Load.BT_205727_M2 bus1=UC205727.1.4 phases=1 conn=Wye model=3 kv=0.22 kw=0.1541395 pf=0.92 daily=RU5_DU status=variable vmaxpu=1.5 vminpu=0.92
New Load.BT_225289_M1 bus1=UC225289.1.4 phases=1 conn=Wye model=2 kv=0.22 kw=0.1750545 pf=0.92 daily=RU4_DU status=variable vmaxpu=1.5 vminpu=0.92
New Load.BT_225289_M2 bus1=UC225289.1.4 phases=1 conn=Wye model=3 kv=0.22 kw=0.1750545 pf=0.92 daily=RU4_DU status=variable vmaxpu=1.5 vminpu=0.92
New Load.BT_225290_M1 bus1=UC225290.2.4 phases=1 conn=Wye model=2 kv=0.22 kw=0.143478 pf=0.92 daily=RU3_DU status=variable vmaxpu=1.5 vminpu=0.92
New Load.BT_225290_M2 bus1=UC225290.2.4 phases=1 conn=Wye model=3 kv=0.22 kw=0.143478 pf=0.92 daily=RU3_DU status=variable vmaxpu=1.5 vminpu=0.92
New Load.BT_225587_M1 bus1=UC225587.1.4 phases=1 conn=Wye model=2 kv=0.22 kw=0.2047185 pf=0.92 daily=RU3_DU status=variable vmaxpu=1.5 vminpu=0.92
New Load.BT_225587_M2 bus1=UC225587.1.4 phases=1 conn=Wye model=3 kv=0.22 kw=0.2047185 pf=0.92 daily=RU3_DU status=variable vmaxpu=1.5 vminpu=0.92
New Load.BT_221021_M1 bus1=UC221021.1.4 phases=1 conn=Wye model=2 kv=0.22 kw=0.339204 pf=0.92 daily=RU2_DU status=variable vmaxpu=1.5 vminpu=0.92
New Load.BT_221021_M2 bus1=UC221021.1.4 phases=1 conn=Wye model=3 kv=0.22 kw=0.339204 pf=0.92 daily=RU2_DU status=variable vmaxpu=1.5 vminpu=0.92
New Load.BT_218320_M1 bus1=UC218320.1.4 phases=1 conn=Wye model=2 kv=0.22 kw=0.1006405 pf=0.92 daily=CO4_DU status=variable vmaxpu=1.5 vminpu=0.92
New Load.BT_218320_M2 bus1=UC218320.1.4 phases=1 conn=Wye model=3 kv=0.22 kw=0.1006405 pf=0.92 daily=CO4_DU status=variable vmaxpu=1.5 vminpu=0.92
New Load.BT_219394_M1 bus1=UC219394.1.4 phases=1 conn=Wye model=2 kv=0.22 kw=0.3411995 pf=0.92 daily=RU2_DU status=variable vmaxpu=1.5 vminpu=0.92
New Load.BT_219394_M2 bus1=UC219394.1.4 phases=1 conn=Wye model=3 kv=0.22 kw=0.3411995 pf=0.92 daily=RU2_DU status=variable vmaxpu=1.5 vminpu=0.92
New Load.BT_233387_M1 bus1=UC233387.1.4 phases=1 conn=Wye model=2 kv=0.22 kw=0.4308485 pf=0.92 daily=RU8_DU status=variable vmaxpu=1.5 vminpu=0.92
New Load.BT_233387_M2 bus1=UC233387.1.4 phases=1 conn=Wye model=3 kv=0.22 kw=0.4308485 pf=0.92 daily=RU8_DU status=variable vmaxpu=1.5 vminpu=0.92
New Load.BT_233389_M1 bus1=UC233389.1.4 phases=1 conn=Wye model=2 kv=0.22 kw=1.1353365 pf=0.92 daily=RU2_DU status=variable vmaxpu=1.5 vminpu=0.92
New Load.BT_233389_M2 bus1=UC233389.1.4 phases=1 conn=Wye model=3 kv=0.22 kw=1.1353365 pf=0.92 daily=RU2_DU status=variable vmaxpu=1.5 vminpu=0.92
New Load.BT_205671_M1 bus1=UC205671.2.4 phases=1 conn=Wye model=2 kv=0.22 kw=0.6974975 pf=0.92 daily=RU8_DU status=variable vmaxpu=1.5 vminpu=0.92
New Load.BT_205671_M2 bus1=UC205671.2.4 phases=1 conn=Wye model=3 kv=0.22 kw=0.6974975 pf=0.92 daily=RU8_DU status=variable vmaxpu=1.5 vminpu=0.92
New Load.BT_205672_M1 bus1=UC205672.1.4 phases=1 conn=Wye model=2 kv=0.22 kw=0.1643465 pf=0.92 daily=RU6_DU status=variable vmaxpu=1.5 vminpu=0.92
New Load.BT_205672_M2 bus1=UC205672.1.4 phases=1 conn=Wye model=3 kv=0.22 kw=0.1643465 pf=0.92 daily=RU6_DU status=variable vmaxpu=1.5 vminpu=0.92
New Load.BT_205673_M1 bus1=UC205673.2.4 phases=1 conn=Wye model=2 kv=0.22 kw=0.343225 pf=0.92 daily=RU4_DU status=variable vmaxpu=1.5 vminpu=0.92
New Load.BT_205673_M2 bus1=UC205673.2.4 phases=1 conn=Wye model=3 kv=0.22 kw=0.343225 pf=0.92 daily=RU4_DU status=variable vmaxpu=1.5 vminpu=0.92
New Load.BT_205675_M1 bus1=UC205675.2.4 phases=1 conn=Wye model=2 kv=0.22 kw=0.0702875 pf=0.92 daily=RU5_DU status=variable vmaxpu=1.5 vminpu=0.92
New Load.BT_205675_M2 bus1=UC205675.2.4 phases=1 conn=Wye model=3 kv=0.22 kw=0.0702875 pf=0.92 daily=RU5_DU status=variable vmaxpu=1.5 vminpu=0.92
New Load.BT_IP1628_M1 bus1=BT69771.1.4 phases=1 conn=Wye model=2 kv=0.22 kw=0.0801295 pf=0.92 daily=IP1_DU status=variable vmaxpu=1.5 vminpu=0.92
New Load.BT_IP1628_M2 bus1=BT69771.1.4 phases=1 conn=Wye model=3 kv=0.22 kw=0.0801295 pf=0.92 daily=IP1_DU status=variable vmaxpu=1.5 vminpu=0.92
New Load.BT_IP1630_M1 bus1=BT69801.1.4 phases=1 conn=Wye model=2 kv=0.22 kw=0.130187 pf=0.92 daily=IP1_DU status=variable vmaxpu=1.5 vminpu=0.92
New Load.BT_IP1630_M2 bus1=BT69801.1.4 phases=1 conn=Wye model=3 kv=0.22 kw=0.130187 pf=0.92 daily=IP1_DU status=variable vmaxpu=1.5 vminpu=0.92
New Load.BT_IP1679_M1 bus1=BT69791.1.4 phases=1 conn=Wye model=2 kv=0.22 kw=0.130187 pf=0.92 daily=IP1_DU status=variable vmaxpu=1.5 vminpu=0.92
New Load.BT_IP1679_M2 bus1=BT69791.1.4 phases=1 conn=Wye model=3 kv=0.22 kw=0.130187 pf=0.92 daily=IP1_DU status=variable vmaxpu=1.5 vminpu=0.92
New Load.BT_IP1681_M1 bus1=BT69851.2.4 phases=1 conn=Wye model=2 kv=0.22 kw=0.0801295 pf=0.92 daily=IP1_DU status=variable vmaxpu=1.5 vminpu=0.92
New Load.BT_IP1681_M2 bus1=BT69851.2.4 phases=1 conn=Wye model=3 kv=0.22 kw=0.0801295 pf=0.92 daily=IP1_DU status=variable vmaxpu=1.5 vminpu=0.92
New Load.BT_IP7809_M1 bus1=ET2_1737.1.4 phases=1 conn=Wye model=2 kv=0.22 kw=0.130187 pf=0.92 daily=IP1_DU status=variable vmaxpu=1.5 vminpu=0.92
New Load.BT_IP7809_M2 bus1=ET2_1737.1.4 phases=1 conn=Wye model=3 kv=0.22 kw=0.130187 pf=0.92 daily=IP1_DU status=variable vmaxpu=1.5 vminpu=0.92
New Load.BT_IP7810_M1 bus1=BT20691.1.4 phases=1 conn=Wye model=2 kv=0.22 kw=0.130187 pf=0.92 daily=IP1_DU status=variable vmaxpu=1.5 vminpu=0.92
New Load.BT_IP7810_M2 bus1=BT20691.1.4 phases=1 conn=Wye model=3 kv=0.22 kw=0.130187 pf=0.92 daily=IP1_DU status=variable vmaxpu=1.5 vminpu=0.92
New Load.BT_IP7811_M1 bus1=BT69831.1.4 phases=1 conn=Wye model=2 kv=0.22 kw=0.0801295 pf=0.92 daily=IP1_DU status=variable vmaxpu=1.5 vminpu=0.92
New Load.BT_IP7811_M2 bus1=BT69831.1.4 phases=1 conn=Wye model=3 kv=0.22 kw=0.0801295 pf=0.92 daily=IP1_DU status=variable vmaxpu=1.5 vminpu=0.92
New Load.BT_235691_M1 bus1=UC235691.2.4 phases=1 conn=Wye model=2 kv=0.22 kw=0.089494 pf=0.92 daily=RU4_DU status=variable vmaxpu=1.5 vminpu=0.92
New Load.BT_235691_M2 bus1=UC235691.2.4 phases=1 conn=Wye model=3 kv=0.22 kw=0.089494 pf=0.92 daily=RU4_DU status=variable vmaxpu=1.5 vminpu=0.92
New Load.BT_205662_M1 bus1=UC205662.1.4 phases=1 conn=Wye model=2 kv=0.22 kw=0.6086505 pf=0.92 daily=RU6_DU status=variable vmaxpu=1.5 vminpu=0.92
New Load.BT_205662_M2 bus1=UC205662.1.4 phases=1 conn=Wye model=3 kv=0.22 kw=0.6086505 pf=0.92 daily=RU6_DU status=variable vmaxpu=1.5 vminpu=0.92
New Load.BT_227077_M1 bus1=UC227077.2.4 phases=1 conn=Wye model=2 kv=0.22 kw=0.6269995 pf=0.92 daily=RU7_DU status=variable vmaxpu=1.5 vminpu=0.92
New Load.BT_227077_M2 bus1=UC227077.2.4 phases=1 conn=Wye model=3 kv=0.22 kw=0.6269995 pf=0.92 daily=RU7_DU status=variable vmaxpu=1.5 vminpu=0.92
New Load.BT_205798_M1 bus1=UC205798.1.4 phases=1 conn=Wye model=2 kv=0.22 kw=0.033294 pf=0.92 daily=RU5_DU status=variable vmaxpu=1.5 vminpu=0.92
New Load.BT_205798_M2 bus1=UC205798.1.4 phases=1 conn=Wye model=3 kv=0.22 kw=0.033294 pf=0.92 daily=RU5_DU status=variable vmaxpu=1.5 vminpu=0.92
New Load.BT_205650_M1 bus1=UC205650.1.4 phases=1 conn=Wye model=2 kv=0.219393102 kw=0.16548 pf=0.92 daily=RU6_DU status=variable vmaxpu=1.5 vminpu=0.92
New Load.BT_205650_M2 bus1=UC205650.1.4 phases=1 conn=Wye model=3 kv=0.219393102 kw=0.16548 pf=0.92 daily=RU6_DU status=variable vmaxpu=1.5 vminpu=0.92
New Load.BT_205651_M1 bus1=UC205651.1.2.3.4 phases=3 conn=Delta model=2 kv=0.38 kw=0.633028 pf=0.92 daily=RU7_DU status=variable vmaxpu=1.5 vminpu=0.92
New Load.BT_205651_M2 bus1=UC205651.1.2.3.4 phases=3 conn=Delta model=3 kv=0.38 kw=0.633028 pf=0.92 daily=RU7_DU status=variable vmaxpu=1.5 vminpu=0.92
New Load.BT_205652_M1 bus1=UC205652.1.4 phases=1 conn=Wye model=2 kv=0.219393102 kw=0.286083 pf=0.92 daily=RU5_DU status=variable vmaxpu=1.5 vminpu=0.92
New Load.BT_205652_M2 bus1=UC205652.1.4 phases=1 conn=Wye model=3 kv=0.219393102 kw=0.286083 pf=0.92 daily=RU5_DU status=variable vmaxpu=1.5 vminpu=0.92
New Load.BT_205654_M1 bus1=UC205654.1.4 phases=1 conn=Wye model=2 kv=0.219393102 kw=0.8101745 pf=0.92 daily=RU1_DU status=variable vmaxpu=1.5 vminpu=0.92
New Load.BT_205654_M2 bus1=UC205654.1.4 phases=1 conn=Wye model=3 kv=0.219393102 kw=0.8101745 pf=0.92 daily=RU1_DU status=variable vmaxpu=1.5 vminpu=0.92
New Load.BT_228394_M1 bus1=UC228394.1.4 phases=1 conn=Wye model=2 kv=0.219393102 kw=0.541338 pf=0.92 daily=RU5_DU status=variable vmaxpu=1.5 vminpu=0.92
New Load.BT_228394_M2 bus1=UC228394.1.4 phases=1 conn=Wye model=3 kv=0.219393102 kw=0.541338 pf=0.92 daily=RU5_DU status=variable vmaxpu=1.5 vminpu=0.92
New Load.BT_230656_M1 bus1=UC230656.2.4 phases=1 conn=Wye model=2 kv=0.219393102 kw=0.564675 pf=0.92 daily=RU2_DU status=variable vmaxpu=1.5 vminpu=0.92
New Load.BT_230656_M2 bus1=UC230656.2.4 phases=1 conn=Wye model=3 kv=0.219393102 kw=0.564675 pf=0.92 daily=RU2_DU status=variable vmaxpu=1.5 vminpu=0.92
New Load.BT_220652_M1 bus1=UC220652.1.4 phases=1 conn=Wye model=2 kv=0.219393102 kw=0.247856 pf=0.92 daily=RU5_DU status=variable vmaxpu=1.5 vminpu=0.92
New Load.BT_220652_M2 bus1=UC220652.1.4 phases=1 conn=Wye model=3 kv=0.219393102 kw=0.247856 pf=0.92 daily=RU5_DU status=variable vmaxpu=1.5 vminpu=0.92
New Load.BT_222263_M1 bus1=UC222263.1.4 phases=1 conn=Wye model=2 kv=0.219393102 kw=0.5926095 pf=0.92 daily=RU2_DU status=variable vmaxpu=1.5 vminpu=0.92
New Load.BT_222263_M2 bus1=UC222263.1.4 phases=1 conn=Wye model=3 kv=0.219393102 kw=0.5926095 pf=0.92 daily=RU2_DU status=variable vmaxpu=1.5 vminpu=0.92
New Load.BT_224968_M1 bus1=UC224968.2.4 phases=1 conn=Wye model=2 kv=0.219393102 kw=0.0393285 pf=0.92 daily=RU1_DU status=variable vmaxpu=1.5 vminpu=0.92
New Load.BT_224968_M2 bus1=UC224968.2.4 phases=1 conn=Wye model=3 kv=0.219393102 kw=0.0393285 pf=0.92 daily=RU1_DU status=variable vmaxpu=1.5 vminpu=0.92
New Load.BT_237167_M1 bus1=UC237167.2.4 phases=1 conn=Wye model=2 kv=0.219393102 kw=0.2059305 pf=0.92 daily=RU5_DU status=variable vmaxpu=1.5 vminpu=0.92
New Load.BT_237167_M2 bus1=UC237167.2.4 phases=1 conn=Wye model=3 kv=0.219393102 kw=0.2059305 pf=0.92 daily=RU5_DU status=variable vmaxpu=1.5 vminpu=0.92
New Load.BT_IP966_M1 bus1=BT55061.1.4 phases=1 conn=Wye model=2 kv=0.219393102 kw=0.0801295 pf=0.92 daily=IP1_DU status=variable vmaxpu=1.5 vminpu=0.92
New Load.BT_IP966_M2 bus1=BT55061.1.4 phases=1 conn=Wye model=3 kv=0.219393102 kw=0.0801295 pf=0.92 daily=IP1_DU status=variable vmaxpu=1.5 vminpu=0.92
New Load.BT_IP967_M1 bus1=BT55071.1.4 phases=1 conn=Wye model=2 kv=0.219393102 kw=0.0801295 pf=0.92 daily=IP1_DU status=variable vmaxpu=1.5 vminpu=0.92
New Load.BT_IP967_M2 bus1=BT55071.1.4 phases=1 conn=Wye model=3 kv=0.219393102 kw=0.0801295 pf=0.92 daily=IP1_DU status=variable vmaxpu=1.5 vminpu=0.92
New Load.BT_IP968_M1 bus1=BT386951.1.4 phases=1 conn=Wye model=2 kv=0.219393102 kw=0.130187 pf=0.92 daily=IP1_DU status=variable vmaxpu=1.5 vminpu=0.92
New Load.BT_IP968_M2 bus1=BT386951.1.4 phases=1 conn=Wye model=3 kv=0.219393102 kw=0.130187 pf=0.92 daily=IP1_DU status=variable vmaxpu=1.5 vminpu=0.92
New Load.BT_IP969_M1 bus1=BT386941.1.4 phases=1 conn=Wye model=2 kv=0.219393102 kw=0.260374 pf=0.92 daily=IP1_DU status=variable vmaxpu=1.5 vminpu=0.92
New Load.BT_IP969_M2 bus1=BT386941.1.4 phases=1 conn=Wye model=3 kv=0.219393102 kw=0.260374 pf=0.92 daily=IP1_DU status=variable vmaxpu=1.5 vminpu=0.92
New Load.BT_IP7807_M1 bus1=ET2_2172.1.4 phases=1 conn=Wye model=2 kv=0.219393102 kw=0.039411 pf=0.92 daily=IP1_DU status=variable vmaxpu=1.5 vminpu=0.92
New Load.BT_IP7807_M2 bus1=ET2_2172.1.4 phases=1 conn=Wye model=3 kv=0.219393102 kw=0.039411 pf=0.92 daily=IP1_DU status=variable vmaxpu=1.5 vminpu=0.92
New Load.BT_237359_M1 bus1=UC237359.2.4 phases=1 conn=Wye model=2 kv=0.22 kw=0.620544 pf=0.92 daily=RU2_DU status=variable vmaxpu=1.5 vminpu=0.92
New Load.BT_237359_M2 bus1=UC237359.2.4 phases=1 conn=Wye model=3 kv=0.22 kw=0.620544 pf=0.92 daily=RU2_DU status=variable vmaxpu=1.5 vminpu=0.92
New Load.BT_238952_M1 bus1=UC238952.2.4 phases=1 conn=Wye model=2 kv=0.22 kw=0 pf=0.92 daily=RE3_DU status=variable vmaxpu=1.5 vminpu=0.92
New Load.BT_238952_M2 bus1=UC238952.2.4 phases=1 conn=Wye model=3 kv=0.22 kw=0 pf=0.92 daily=RE3_DU status=variable vmaxpu=1.5 vminpu=0.92
New Load.BT_IP1625_M1 bus1=BT337611.2.4 phases=1 conn=Wye model=2 kv=0.22 kw=0.260374 pf=0.92 daily=IP1_DU status=variable vmaxpu=1.5 vminpu=0.92
New Load.BT_IP1625_M2 bus1=BT337611.2.4 phases=1 conn=Wye model=3 kv=0.22 kw=0.260374 pf=0.92 daily=IP1_DU status=variable vmaxpu=1.5 vminpu=0.92
New Load.BT_IP7805_M1 bus1=BT806381.2.4 phases=1 conn=Wye model=2 kv=0.22 kw=0.0801295 pf=0.92 daily=IP1_DU status=variable vmaxpu=1.5 vminpu=0.92
New Load.BT_IP7805_M2 bus1=BT806381.2.4 phases=1 conn=Wye model=3 kv=0.22 kw=0.0801295 pf=0.92 daily=IP1_DU status=variable vmaxpu=1.5 vminpu=0.92
New Load.BT_228021_M1 bus1=UC228021.2.4 phases=1 conn=Wye model=2 kv=0.22 kw=0.2734 pf=0.92 daily=RU4_DU status=variable vmaxpu=1.5 vminpu=0.92
New Load.BT_228021_M2 bus1=UC228021.2.4 phases=1 conn=Wye model=3 kv=0.22 kw=0.2734 pf=0.92 daily=RU4_DU status=variable vmaxpu=1.5 vminpu=0.92
New Load.BT_231938_M1 bus1=UC231938.1.4 phases=1 conn=Wye model=2 kv=0.22 kw=0.326427 pf=0.92 daily=RU6_DU status=variable vmaxpu=1.5 vminpu=0.92
New Load.BT_231938_M2 bus1=UC231938.1.4 phases=1 conn=Wye model=3 kv=0.22 kw=0.326427 pf=0.92 daily=RU6_DU status=variable vmaxpu=1.5 vminpu=0.92
New Load.BT_230555_M1 bus1=UC230555.1.4 phases=1 conn=Wye model=2 kv=0.22 kw=0.0216355 pf=0.92 daily=RU4_DU status=variable vmaxpu=1.5 vminpu=0.92
New Load.BT_230555_M2 bus1=UC230555.1.4 phases=1 conn=Wye model=3 kv=0.22 kw=0.0216355 pf=0.92 daily=RU4_DU status=variable vmaxpu=1.5 vminpu=0.92
New Load.BT_221678_M1 bus1=UC221678.1.4 phases=1 conn=Wye model=2 kv=0.22 kw=0.076988 pf=0.92 daily=RU3_DU status=variable vmaxpu=1.5 vminpu=0.92
New Load.BT_221678_M2 bus1=UC221678.1.4 phases=1 conn=Wye model=3 kv=0.22 kw=0.076988 pf=0.92 daily=RU3_DU status=variable vmaxpu=1.5 vminpu=0.92
New Load.BT_219351_M1 bus1=UC219351.2.4 phases=1 conn=Wye model=2 kv=0.22 kw=0.2604455 pf=0.92 daily=RU7_DU status=variable vmaxpu=1.5 vminpu=0.92
New Load.BT_219351_M2 bus1=UC219351.2.4 phases=1 conn=Wye model=3 kv=0.22 kw=0.2604455 pf=0.92 daily=RU7_DU status=variable vmaxpu=1.5 vminpu=0.92
New Load.BT_219353_M1 bus1=UC219353.2.4 phases=1 conn=Wye model=2 kv=0.22 kw=0.317777 pf=0.92 daily=RU1_DU status=variable vmaxpu=1.5 vminpu=0.92
New Load.BT_219353_M2 bus1=UC219353.2.4 phases=1 conn=Wye model=3 kv=0.22 kw=0.317777 pf=0.92 daily=RU1_DU status=variable vmaxpu=1.5 vminpu=0.92
New Load.BT_219354_M1 bus1=UC219354.1.4 phases=1 conn=Wye model=2 kv=0.22 kw=0.156413 pf=0.92 daily=RU6_DU status=variable vmaxpu=1.5 vminpu=0.92
New Load.BT_219354_M2 bus1=UC219354.1.4 phases=1 conn=Wye model=3 kv=0.22 kw=0.156413 pf=0.92 daily=RU6_DU status=variable vmaxpu=1.5 vminpu=0.92
New Load.BT_219377_M1 bus1=UC219377.1.2.4 phases=1 conn=Delta model=2 kv=0.44 kw=3.116448 pf=0.92 daily=PP7_DU status=variable vmaxpu=1.5 vminpu=0.92
New Load.BT_219377_M2 bus1=UC219377.1.2.4 phases=1 conn=Delta model=3 kv=0.44 kw=3.116448 pf=0.92 daily=PP7_DU status=variable vmaxpu=1.5 vminpu=0.92
New Load.BT_227073_M1 bus1=UC227073.2.4 phases=1 conn=Wye model=2 kv=0.22 kw=0.017497 pf=0.92 daily=RU3_DU status=variable vmaxpu=1.5 vminpu=0.92
New Load.BT_227073_M2 bus1=UC227073.2.4 phases=1 conn=Wye model=3 kv=0.22 kw=0.017497 pf=0.92 daily=RU3_DU status=variable vmaxpu=1.5 vminpu=0.92
New Load.BT_205749_M1 bus1=UC205749.1.2.4 phases=1 conn=Delta model=2 kv=0.44 kw=0.2343705 pf=0.92 daily=RU8_DU status=variable vmaxpu=1.5 vminpu=0.92
New Load.BT_205749_M2 bus1=UC205749.1.2.4 phases=1 conn=Delta model=3 kv=0.44 kw=0.2343705 pf=0.92 daily=RU8_DU status=variable vmaxpu=1.5 vminpu=0.92
New Load.BT_205703_M1 bus1=UC205703.1.4 phases=1 conn=Wye model=2 kv=0.22 kw=0 pf=0.92 daily=RU1_DU status=variable vmaxpu=1.5 vminpu=0.92
New Load.BT_205703_M2 bus1=UC205703.1.4 phases=1 conn=Wye model=3 kv=0.22 kw=0 pf=0.92 daily=RU1_DU status=variable vmaxpu=1.5 vminpu=0.92
New Load.BT_205680_M1 bus1=UC205680.1.2.3.4 phases=3 conn=Delta model=2 kv=0.38 kw=1.4466065 pf=0.92 daily=RU2_DU status=variable vmaxpu=1.5 vminpu=0.92
New Load.BT_205680_M2 bus1=UC205680.1.2.3.4 phases=3 conn=Delta model=3 kv=0.38 kw=1.4466065 pf=0.92 daily=RU2_DU status=variable vmaxpu=1.5 vminpu=0.92
New Load.BT_206080_M1 bus1=UC206080.2.4 phases=1 conn=Wye model=2 kv=0.219393102 kw=0.4209175 pf=0.92 daily=RU4_DU status=variable vmaxpu=1.5 vminpu=0.92
New Load.BT_206080_M2 bus1=UC206080.2.4 phases=1 conn=Wye model=3 kv=0.219393102 kw=0.4209175 pf=0.92 daily=RU4_DU status=variable vmaxpu=1.5 vminpu=0.92
New Load.BT_205735_M1 bus1=UC205735.3.1.4 phases=1 conn=Delta model=2 kv=0.38 kw=0.981561 pf=0.92 daily=RU5_DU status=variable vmaxpu=1.5 vminpu=0.92
New Load.BT_205735_M2 bus1=UC205735.3.1.4 phases=1 conn=Delta model=3 kv=0.38 kw=0.981561 pf=0.92 daily=RU5_DU status=variable vmaxpu=1.5 vminpu=0.92
New Load.BT_IP1070_M1 bus1=BT307401.1.4 phases=1 conn=Wye model=2 kv=0.219393102 kw=0.0801295 pf=0.92 daily=IP1_DU status=variable vmaxpu=1.5 vminpu=0.92
New Load.BT_IP1070_M2 bus1=BT307401.1.4 phases=1 conn=Wye model=3 kv=0.219393102 kw=0.0801295 pf=0.92 daily=IP1_DU status=variable vmaxpu=1.5 vminpu=0.92
New Load.BT_IP1071_M1 bus1=BT307391.2.4 phases=1 conn=Wye model=2 kv=0.219393102 kw=0.0801295 pf=0.92 daily=IP1_DU status=variable vmaxpu=1.5 vminpu=0.92
New Load.BT_IP1071_M2 bus1=BT307391.2.4 phases=1 conn=Wye model=3 kv=0.219393102 kw=0.0801295 pf=0.92 daily=IP1_DU status=variable vmaxpu=1.5 vminpu=0.92
New Load.BT_IP1072_M1 bus1=ET2_2880.1.4 phases=1 conn=Wye model=2 kv=0.219393102 kw=0.0801295 pf=0.92 daily=IP1_DU status=variable vmaxpu=1.5 vminpu=0.92
New Load.BT_IP1072_M2 bus1=ET2_2880.1.4 phases=1 conn=Wye model=3 kv=0.219393102 kw=0.0801295 pf=0.92 daily=IP1_DU status=variable vmaxpu=1.5 vminpu=0.92
New Load.BT_217031_M1 bus1=UC217031.1.4 phases=1 conn=Wye model=2 kv=0.22 kw=0.2028205 pf=0.92 daily=RE2_DU status=variable vmaxpu=1.5 vminpu=0.92
New Load.BT_217031_M2 bus1=UC217031.1.4 phases=1 conn=Wye model=3 kv=0.22 kw=0.2028205 pf=0.92 daily=RE2_DU status=variable vmaxpu=1.5 vminpu=0.92
New Load.BT_218309_M1 bus1=UC218309.1.4 phases=1 conn=Wye model=2 kv=0.22 kw=0.3146305 pf=0.92 daily=RU1_DU status=variable vmaxpu=1.5 vminpu=0.92
New Load.BT_218309_M2 bus1=UC218309.1.4 phases=1 conn=Wye model=3 kv=0.22 kw=0.3146305 pf=0.92 daily=RU1_DU status=variable vmaxpu=1.5 vminpu=0.92
New Load.BT_219392_M1 bus1=UC219392.1.4 phases=1 conn=Wye model=2 kv=0.22 kw=0.1688805 pf=0.92 daily=RU6_DU status=variable vmaxpu=1.5 vminpu=0.92
New Load.BT_219392_M2 bus1=UC219392.1.4 phases=1 conn=Wye model=3 kv=0.22 kw=0.1688805 pf=0.92 daily=RU6_DU status=variable vmaxpu=1.5 vminpu=0.92
New Load.BT_205655_M1 bus1=UC205655.1.4 phases=1 conn=Wye model=2 kv=0.22 kw=0.254022 pf=0.92 daily=RU5_DU status=variable vmaxpu=1.5 vminpu=0.92
New Load.BT_205655_M2 bus1=UC205655.1.4 phases=1 conn=Wye model=3 kv=0.22 kw=0.254022 pf=0.92 daily=RU5_DU status=variable vmaxpu=1.5 vminpu=0.92
New Load.BT_222260_M1 bus1=UC222260.1.4 phases=1 conn=Wye model=2 kv=0.22 kw=0.403932 pf=0.92 daily=RU7_DU status=variable vmaxpu=1.5 vminpu=0.92
New Load.BT_222260_M2 bus1=UC222260.1.4 phases=1 conn=Wye model=3 kv=0.22 kw=0.403932 pf=0.92 daily=RU7_DU status=variable vmaxpu=1.5 vminpu=0.92
New Load.BT_221689_M1 bus1=UC221689.1.4 phases=1 conn=Wye model=2 kv=0.22 kw=0.6619215 pf=0.92 daily=RU6_DU status=variable vmaxpu=1.5 vminpu=0.92
New Load.BT_221689_M2 bus1=UC221689.1.4 phases=1 conn=Wye model=3 kv=0.22 kw=0.6619215 pf=0.92 daily=RU6_DU status=variable vmaxpu=1.5 vminpu=0.92
New Load.BT_205729_M1 bus1=UC205729.1.2.4 phases=1 conn=Delta model=2 kv=0.44 kw=0.308292 pf=0.92 daily=RU6_DU status=variable vmaxpu=1.5 vminpu=0.92
New Load.BT_205729_M2 bus1=UC205729.1.2.4 phases=1 conn=Delta model=3 kv=0.44 kw=0.308292 pf=0.92 daily=RU6_DU status=variable vmaxpu=1.5 vminpu=0.92
New Load.BT_205730_M1 bus1=UC205730.2.4 phases=1 conn=Wye model=2 kv=0.22 kw=0.408394 pf=0.92 daily=RU8_DU status=variable vmaxpu=1.5 vminpu=0.92
New Load.BT_205730_M2 bus1=UC205730.2.4 phases=1 conn=Wye model=3 kv=0.22 kw=0.408394 pf=0.92 daily=RU8_DU status=variable vmaxpu=1.5 vminpu=0.92
New Load.BT_205731_M1 bus1=UC205731.1.4 phases=1 conn=Wye model=2 kv=0.22 kw=0.0191695 pf=0.92 daily=CO4_DU status=variable vmaxpu=1.5 vminpu=0.92
New Load.BT_205731_M2 bus1=UC205731.1.4 phases=1 conn=Wye model=3 kv=0.22 kw=0.0191695 pf=0.92 daily=CO4_DU status=variable vmaxpu=1.5 vminpu=0.92
New Load.BT_223627_M1 bus1=UC223627.2.4 phases=1 conn=Wye model=2 kv=0.22 kw=0.109466 pf=0.92 daily=RU8_DU status=variable vmaxpu=1.5 vminpu=0.92
New Load.BT_223627_M2 bus1=UC223627.2.4 phases=1 conn=Wye model=3 kv=0.22 kw=0.109466 pf=0.92 daily=RU8_DU status=variable vmaxpu=1.5 vminpu=0.92
New Load.BT_223629_M1 bus1=UC223629.1.4 phases=1 conn=Wye model=2 kv=0.22 kw=0.0022585 pf=0.92 daily=RE1_DU status=variable vmaxpu=1.5 vminpu=0.92
New Load.BT_223629_M2 bus1=UC223629.1.4 phases=1 conn=Wye model=3 kv=0.22 kw=0.0022585 pf=0.92 daily=RE1_DU status=variable vmaxpu=1.5 vminpu=0.92
New Load.BT_223630_M1 bus1=UC223630.2.4 phases=1 conn=Wye model=2 kv=0.22 kw=0.0621155 pf=0.92 daily=RU3_DU status=variable vmaxpu=1.5 vminpu=0.92
New Load.BT_223630_M2 bus1=UC223630.2.4 phases=1 conn=Wye model=3 kv=0.22 kw=0.0621155 pf=0.92 daily=RU3_DU status=variable vmaxpu=1.5 vminpu=0.92
New Load.BT_223631_M1 bus1=UC223631.2.4 phases=1 conn=Wye model=2 kv=0.22 kw=0.133744 pf=0.92 daily=RU6_DU status=variable vmaxpu=1.5 vminpu=0.92
New Load.BT_223631_M2 bus1=UC223631.2.4 phases=1 conn=Wye model=3 kv=0.22 kw=0.133744 pf=0.92 daily=RU6_DU status=variable vmaxpu=1.5 vminpu=0.92
New Load.BT_228388_M1 bus1=UC228388.1.4 phases=1 conn=Wye model=2 kv=0.22 kw=0.2044085 pf=0.92 daily=RE1_DU status=variable vmaxpu=1.5 vminpu=0.92
New Load.BT_228388_M2 bus1=UC228388.1.4 phases=1 conn=Wye model=3 kv=0.22 kw=0.2044085 pf=0.92 daily=RE1_DU status=variable vmaxpu=1.5 vminpu=0.92
New Load.BT_225860_M1 bus1=UC225860.2.4 phases=1 conn=Wye model=2 kv=0.22 kw=0.257687 pf=0.92 daily=RE8_DU status=variable vmaxpu=1.5 vminpu=0.92
New Load.BT_225860_M2 bus1=UC225860.2.4 phases=1 conn=Wye model=3 kv=0.22 kw=0.257687 pf=0.92 daily=RE8_DU status=variable vmaxpu=1.5 vminpu=0.92
New Load.BT_226224_M1 bus1=UC226224.2.4 phases=1 conn=Wye model=2 kv=0.22 kw=0.1016995 pf=0.92 daily=RE6_DU status=variable vmaxpu=1.5 vminpu=0.92
New Load.BT_226224_M2 bus1=UC226224.2.4 phases=1 conn=Wye model=3 kv=0.22 kw=0.1016995 pf=0.92 daily=RE6_DU status=variable vmaxpu=1.5 vminpu=0.92
New Load.BT_223633_M1 bus1=UC223633.1.4 phases=1 conn=Wye model=2 kv=0.22 kw=0.1212765 pf=0.92 daily=RU6_DU status=variable vmaxpu=1.5 vminpu=0.92
New Load.BT_223633_M2 bus1=UC223633.1.4 phases=1 conn=Wye model=3 kv=0.22 kw=0.1212765 pf=0.92 daily=RU6_DU status=variable vmaxpu=1.5 vminpu=0.92
New Load.BT_223634_M1 bus1=UC223634.1.4 phases=1 conn=Wye model=2 kv=0.22 kw=0.077169 pf=0.92 daily=RU7_DU status=variable vmaxpu=1.5 vminpu=0.92
New Load.BT_223634_M2 bus1=UC223634.1.4 phases=1 conn=Wye model=3 kv=0.22 kw=0.077169 pf=0.92 daily=RU7_DU status=variable vmaxpu=1.5 vminpu=0.92
New Load.BT_223645_M1 bus1=UC223645.1.4 phases=1 conn=Wye model=2 kv=0.22 kw=0.148762 pf=0.92 daily=RU8_DU status=variable vmaxpu=1.5 vminpu=0.92
New Load.BT_223645_M2 bus1=UC223645.1.4 phases=1 conn=Wye model=3 kv=0.22 kw=0.148762 pf=0.92 daily=RU8_DU status=variable vmaxpu=1.5 vminpu=0.92
New Load.BT_218323_M1 bus1=UC218323.1.4 phases=1 conn=Wye model=2 kv=0.22 kw=0.2950355 pf=0.92 daily=RU4_DU status=variable vmaxpu=1.5 vminpu=0.92
New Load.BT_218323_M2 bus1=UC218323.1.4 phases=1 conn=Wye model=3 kv=0.22 kw=0.2950355 pf=0.92 daily=RU4_DU status=variable vmaxpu=1.5 vminpu=0.92
New Load.BT_234529_M1 bus1=UC234529.2.4 phases=1 conn=Wye model=2 kv=0.22 kw=0 pf=0.92 daily=RU3_DU status=variable vmaxpu=1.5 vminpu=0.92
New Load.BT_234529_M2 bus1=UC234529.2.4 phases=1 conn=Wye model=3 kv=0.22 kw=0 pf=0.92 daily=RU3_DU status=variable vmaxpu=1.5 vminpu=0.92
New Load.BT_205711_M1 bus1=UC205711.2.4 phases=1 conn=Wye model=2 kv=0.22 kw=0.212096 pf=0.92 daily=RU5_DU status=variable vmaxpu=1.5 vminpu=0.92
New Load.BT_205711_M2 bus1=UC205711.2.4 phases=1 conn=Wye model=3 kv=0.22 kw=0.212096 pf=0.92 daily=RU5_DU status=variable vmaxpu=1.5 vminpu=0.92
New Load.BT_226233_M1 bus1=UC226233.1.2.3.4 phases=3 conn=Delta model=2 kv=0.38 kw=1.194907 pf=0.92 daily=CO4_DU status=variable vmaxpu=1.5 vminpu=0.92