New Circuit.30_SE001_1 basekv=23.1 pu=1 bus1=1_SE001_30 r1=0 x1=0.0001
