New Line.SMT_10030 phases=1 bus1=638101.2 bus2= 297771.2 linecode=1_1 length=0.00293 units=km
New Line.SMT_10049 phases=3 bus1=595631.1.2.3 bus2= 595621.1.2.3 linecode=10_3 length=0.11605 units=km
New Line.SMT_1013 phases=3 bus1=17CF1499.1.2.3 bus2= 686281.1.2.3 linecode=10_3 length=0.11348 units=km
New Line.SMT_10132 phases=1 bus1=97341.2 bus2= 624721.2 linecode=1_1 length=0.08374 units=km
New Line.SMT_10134 phases=1 bus1=5CF1057.2 bus2= 624731.2 linecode=1_1 length=0.17334 units=km
New Line.SMT_10154 phases=1 bus1=327581.3 bus2= 327591.3 linecode=1_1 length=0.20155 units=km
New Line.SMT_10157 phases=1 bus1=286261.3 bus2= 286271.3 linecode=1_1 length=0.0461 units=km
New Line.SMT_1018 phases=1 bus1=209051.1 bus2= 209061.1 linecode=1_1 length=0.10696 units=km
New Line.SMT_10214 phases=3 bus1=362631.1.2.3 bus2= 366601.1.2.3 linecode=10_3 length=0.08031 units=km
New Line.SMT_10248 phases=1 bus1=331491.3 bus2= 331521.3 linecode=1_1 length=0.12776 units=km
New Line.SMT_1029 phases=3 bus1=172661.1.2.3 bus2= 814401.1.2.3 linecode=10_3 length=0.00293 units=km
New Line.SMT_10349 phases=3 bus1=582791.1.2.3 bus2= 451321.1.2.3 linecode=13_3 length=0.0994 units=km
New Line.SMT_10406 phases=3 bus1=224401.1.2.3 bus2= 443921.1.2.3 linecode=13_3 length=0.00295 units=km
New Line.SMT_10493 phases=3 bus1=476701.1.2.3 bus2= 447391.1.2.3 linecode=13_3 length=0.09879 units=km
New Line.SMT_10512 phases=3 bus1=113251.1.2.3 bus2= 561001.1.2.3 linecode=10_3 length=0.00153 units=km
New Line.SMT_10594 phases=1 bus1=624731.2 bus2= 97321.2 linecode=1_1 length=0.25543 units=km
New Line.SMT_10611 phases=1 bus1=97321.2 bus2= 624741.2 linecode=1_1 length=0.23169 units=km
New Line.SMT_10635 phases=3 bus1=293811.1.2.3 bus2= 294381.1.2.3 linecode=12_3 length=0.0892 units=km
New Line.SMT_10637 phases=3 bus1=126751.1.2.3.4 bus2= 126761.1.2.3.4 linecode=33_3 length=0.10998 units=km
New Line.SMT_10638 phases=3 bus1=118191.1.2.3.4 bus2= 126751.1.2.3.4 linecode=33_3 length=0.12663 units=km
New Line.SMT_10642 phases=3 bus1=126761.1.2.3.4 bus2= 126771.1.2.3.4 linecode=33_3 length=0.11728 units=km
New Line.SMT_10643 phases=3 bus1=223421.1.2.3.4 bus2= 223371.1.2.3.4 linecode=33_3 length=0.1014 units=km
New Line.SMT_10686 phases=1 bus1=269141.3 bus2= 281911.3 linecode=1_1 length=0.00269 units=km
New Line.SMT_10696 phases=3 bus1=258351.1.2.3 bus2= 258361.1.2.3 linecode=12_3 length=0.105 units=km
New Line.SMT_10698 phases=3 bus1=258381.1.2.3 bus2= 327881.1.2.3 linecode=12_3 length=0.10102 units=km
New Line.SMT_10722 phases=3 bus1=228181.1.2.3 bus2= 228171.1.2.3 linecode=10_3 length=0.08453 units=km
New Line.SMT_1074 phases=3 bus1=239311.1.2.3 bus2= 239301.1.2.3 linecode=10_3 length=0.0333 units=km
New Line.SMT_1075 phases=3 bus1=236491.1.2.3 bus2= 260631.1.2.3 linecode=10_3 length=0.00874 units=km
New Line.SMT_10759 phases=3 bus1=647501.1.2.3 bus2= 647511.1.2.3 linecode=13_3 length=0.10816 units=km
New Line.SMT_10804 phases=3 bus1=293821.1.2.3 bus2= 258331.1.2.3 linecode=12_3 length=0.11411 units=km
New Line.SMT_10819 phases=3 bus1=293771.1.2.3 bus2= 366331.1.2.3 linecode=10_3 length=0.0051 units=km
New Line.SMT_10877 phases=3 bus1=83211.1.2.3 bus2= 83221.1.2.3 linecode=10_3 length=0.06251 units=km
New Line.SMT_10909 phases=1 bus1=654701.2 bus2= 534111.2 linecode=1_1 length=0.08956 units=km
New Line.SMT_10910 phases=1 bus1=534111.2 bus2= 534101.2 linecode=1_1 length=0.07834 units=km
New Line.SMT_10912 phases=1 bus1=654681.2 bus2= 308371.2 linecode=1_1 length=0.1151 units=km
New Line.SMT_10915 phases=1 bus1=654691.2 bus2= 654681.2 linecode=1_1 length=0.08548 units=km
New Line.SMT_10916 phases=1 bus1=308371.2 bus2= 654701.2 linecode=1_1 length=0.09246 units=km
New Line.SMT_10917 phases=3 bus1=23FR124.1.2.3 bus2= 310651.1.2.3 linecode=10_3 length=0.111 units=km
New Line.SMT_10918 phases=3 bus1=652021.1.2.3.4 bus2= 652031.1.2.3.4 linecode=25_3 length=0.08006 units=km
New Line.SMT_10928 phases=3 bus1=293771.1.2.3 bus2= 293811.1.2.3 linecode=12_3 length=0.08601 units=km
New Line.SMT_10987 phases=1 bus1=320521.1 bus2= 524051.1 linecode=29_1 length=0.07976 units=km
New Line.SMT_11031 phases=3 bus1=191071.1.2.3 bus2= 684781.1.2.3 linecode=12_3 length=0.00901 units=km
New Line.SMT_11051 phases=1 bus1=286061.3 bus2= 581831.3 linecode=1_1 length=0.00277 units=km
New Line.SMT_11063 phases=1 bus1=279481.2 bus2= 279491.2 linecode=29_1 length=0.16844 units=km
New Line.SMT_1112 phases=3 bus1=584171.1.2.3 bus2= 584181.1.2.3 linecode=10_3 length=0.0528 units=km
New Line.SMT_11122 phases=3 bus1=358201.1.2.3 bus2= 358191.1.2.3 linecode=25_3 length=0.09238 units=km
New Line.SMT_1113 phases=3 bus1=584181.1.2.3 bus2= 651681.1.2.3 linecode=10_3 length=0.07295 units=km
New Line.SMT_1114 phases=3 bus1=651681.1.2.3 bus2= 651691.1.2.3 linecode=10_3 length=0.10072 units=km
New Line.SMT_11145 phases=3 bus1=2CF821.1.2.3 bus2= 358211.1.2.3 linecode=10_3 length=0.08327 units=km
New Line.SMT_11152 phases=3 bus1=356691.1.2.3 bus2= 311551.1.2.3 linecode=10_3 length=0.05614 units=km
New Line.SMT_1119 phases=1 bus1=209032.1 bus2= 209041.1 linecode=1_1 length=0.1019 units=km
New Line.SMT_1120 phases=1 bus1=209041.1 bus2= 209051.1 linecode=1_1 length=0.09878 units=km
New Line.SMT_11201 phases=3 bus1=293551.1.2.3 bus2= 164401.1.2.3 linecode=10_3 length=0.06037 units=km
New Line.SMT_11211 phases=3 bus1=444671.1.2.3 bus2= 228181.1.2.3 linecode=10_3 length=0.06181 units=km
New Line.SMT_11216 phases=3 bus1=293751.1.2.3 bus2= 327901.1.2.3 linecode=12_3 length=0.10062 units=km
New Line.SMT_11218 phases=3 bus1=357231.1.2.3 bus2= 357221.1.2.3 linecode=25_3 length=0.08262 units=km
New Line.SMT_11251 phases=1 bus1=557471.3 bus2= 557481.3 linecode=1_1 length=0.13521 units=km
New Line.SMT_11293 phases=3 bus1=552001.1.2.3.4 bus2= 551991.1.2.3.4 linecode=33_3 length=0.09868 units=km
New Line.SMT_11294 phases=3 bus1=556221.1.2.3.4 bus2= 552011.1.2.3.4 linecode=33_3 length=0.1 units=km
New Line.SMT_11295 phases=3 bus1=556201.1.2.3.4 bus2= 556211.1.2.3.4 linecode=33_3 length=0.1 units=km
New Line.SMT_11306 phases=3 bus1=556181.1.2.3.4 bus2= 556191.1.2.3.4 linecode=33_3 length=0.13382 units=km
New Line.SMT_11313 phases=3 bus1=193971.1.2.3 bus2= 292721.1.2.3 linecode=36_3 length=0.02941 units=km
New Line.SMT_11330 phases=3 bus1=258341.1.2.3 bus2= 258351.1.2.3 linecode=12_3 length=0.09805 units=km
New Line.SMT_11334 phases=3 bus1=357761.1.2.3 bus2= 357771.1.2.3 linecode=10_3 length=0.10392 units=km
New Line.SMT_11362 phases=3 bus1=358081.1.2.3 bus2= 357081.1.2.3 linecode=25_3 length=0.09492 units=km
New Line.SMT_11376 phases=3 bus1=293691.1.2.3 bus2= 366321.1.2.3 linecode=10_3 length=0.003 units=km
New Line.SMT_11389 phases=3 bus1=103091.1.2.3 bus2= 103101.1.2.3 linecode=10_3 length=0.09362 units=km
New Line.SMT_11396 phases=3 bus1=358001.1.2.3 bus2= 358021.1.2.3 linecode=12_3 length=0.12554 units=km
New Line.SMT_11402 phases=3 bus1=358021.1.2.3 bus2= 357991.1.2.3 linecode=12_3 length=0.149 units=km
New Line.SMT_11403 phases=3 bus1=358011.1.2.3 bus2= 358001.1.2.3 linecode=12_3 length=0.12081 units=km
New Line.SMT_11404 phases=3 bus1=23CF662.1.2.3 bus2= 644261.1.2.3 linecode=10_3 length=0.10298 units=km
New Line.SMT_11405 phases=3 bus1=644251.1.2.3 bus2= 275131.1.2.3 linecode=12_3 length=0.12365 units=km
New Line.SMT_11431 phases=3 bus1=319501.1.2.3 bus2= 367691.1.2.3 linecode=10_3 length=0.005 units=km
New Line.SMT_11432 phases=3 bus1=2CF38.1.2.3 bus2= 367671.1.2.3 linecode=10_3 length=0.0994 units=km
New Line.SMT_11435 phases=1 bus1=275191.3 bus2= 651101.3 linecode=1_1 length=0.18985 units=km
New Line.SMT_11436 phases=1 bus1=651101.3 bus2= 651111.3 linecode=1_1 length=0.19295 units=km
New Line.SMT_11439 phases=1 bus1=651111.3 bus2= 328901.3 linecode=1_1 length=0.11547 units=km
New Line.SMT_11455 phases=3 bus1=358211.1.2.3 bus2= 358221.1.2.3 linecode=10_3 length=0.09483 units=km
New Line.SMT_11477 phases=3 bus1=293981.1.2.3 bus2= 532931.1.2.3 linecode=10_3 length=0.11456 units=km
New Line.SMT_11478 phases=1 bus1=193441.2 bus2= 193451.2 linecode=1_1 length=0.06242 units=km
New Line.SMT_11481 phases=3 bus1=328941.1.2.3.4 bus2= 328951.1.2.3.4 linecode=25_3 length=0.09322 units=km
New Line.SMT_11483 phases=1 bus1=193631.3 bus2= 193651.3 linecode=1_1 length=0.1041 units=km
New Line.SMT_11488 phases=1 bus1=654731.2 bus2= 329621.2 linecode=1_1 length=0.13466 units=km
New Line.SMT_11489 phases=3 bus1=131691.1.2.3 bus2= 131681.1.2.3 linecode=28_3 length=0.07151 units=km
New Line.SMT_11492 phases=1 bus1=123321.1 bus2= 123311.1 linecode=1_1 length=0.12143 units=km
New Line.SMT_11498 phases=3 bus1=254591.1.2.3 bus2= 258301.1.2.3 linecode=11_3 length=0.14584 units=km
New Line.SMT_11499 phases=3 bus1=115181.1.2.3 bus2= 115191.1.2.3 linecode=10_3 length=0.06044 units=km
New Line.SMT_11507 phases=3 bus1=328041.1.2.3 bus2= 293711.1.2.3 linecode=10_3 length=0.07559 units=km
New Line.SMT_11521 phases=3 bus1=293561.1.2.3 bus2= 328251.1.2.3 linecode=12_3 length=0.25417 units=km
New Line.SMT_11531 phases=3 bus1=329001.1.2.3.4 bus2= 329011.1.2.3.4 linecode=25_3 length=0.07855 units=km
New Line.SMT_11547 phases=3 bus1=174081.1.2.3 bus2= 174091.1.2.3 linecode=12_3 length=0.03384 units=km
New Line.SMT_11549 phases=1 bus1=207291.1 bus2= 207301.1 linecode=1_1 length=0.14519 units=km
New Line.SMT_11555 phases=3 bus1=328961.1.2.3.4 bus2= 328971.1.2.3.4 linecode=25_3 length=0.10933 units=km
New Line.SMT_11557 phases=1 bus1=193601.3 bus2= 193611.3 linecode=1_1 length=0.12988 units=km
New Line.SMT_11558 phases=1 bus1=215541.2 bus2= 193431.2 linecode=1_1 length=0.05731 units=km
New Line.SMT_11562 phases=3 bus1=131701.1.2.3 bus2= 131691.1.2.3 linecode=28_3 length=0.06172 units=km
New Line.SMT_11563 phases=3 bus1=208111.1.2.3 bus2= 193781.1.2.3 linecode=11_3 length=0.10254 units=km
New Line.SMT_11565 phases=3 bus1=326141.1.2.3.4 bus2= 326131.1.2.3.4 linecode=25_3 length=0.12881 units=km
New Line.SMT_11571 phases=3 bus1=326131.1.2.3 bus2= 267711.1.2.3 linecode=10_3 length=0.00288 units=km
New Line.SMT_11573 phases=3 bus1=82461.1.2.3 bus2= 82451.1.2.3 linecode=28_3 length=0.12841 units=km
New Line.SMT_11582 phases=3 bus1=305961.1.2.3 bus2= 239191.1.2.3 linecode=11_3 length=0.0322 units=km
New Line.SMT_11588 phases=3 bus1=176051.1.2.3 bus2= 176031.1.2.3 linecode=12_3 length=0.03211 units=km
New Line.SMT_11616 phases=3 bus1=328051.1.2.3 bus2= 293691.1.2.3 linecode=12_3 length=0.0922 units=km
New Line.SMT_11617 phases=3 bus1=328101.1.2.3 bus2= 328081.1.2.3 linecode=12_3 length=0.09904 units=km
New Line.SMT_11619 phases=3 bus1=328161.1.2.3 bus2= 328101.1.2.3 linecode=12_3 length=0.09632 units=km
New Line.SMT_11620 phases=3 bus1=328201.1.2.3 bus2= 328191.1.2.3 linecode=12_3 length=0.09454 units=km
New Line.SMT_11636 phases=1 bus1=193681.3 bus2= 193691.3 linecode=1_1 length=0.11579 units=km
New Line.SMT_11637 phases=3 bus1=328951.1.2.3.4 bus2= 328961.1.2.3.4 linecode=25_3 length=0.11369 units=km
New Line.SMT_11655 phases=1 bus1=193611.3 bus2= 193631.3 linecode=1_1 length=0.56476 units=km
New Line.SMT_11657 phases=1 bus1=193451.2 bus2= 193461.2 linecode=1_1 length=0.06406 units=km
New Line.SMT_11661 phases=1 bus1=193651.3 bus2= 193661.3 linecode=1_1 length=0.08121 units=km
New Line.SMT_11664 phases=3 bus1=328231.1.2.3.4 bus2= 652021.1.2.3.4 linecode=25_3 length=0.07425 units=km
New Line.SMT_11665 phases=3 bus1=131681.1.2.3 bus2= 131641.1.2.3 linecode=28_3 length=0.08344 units=km
New Line.SMT_11668 phases=3 bus1=258301.1.2.3 bus2= 258311.1.2.3 linecode=11_3 length=0.14366 units=km
New Line.SMT_11669 phases=3 bus1=131641.1.2.3 bus2= 351221.1.2.3 linecode=28_3 length=0.06229 units=km
New Line.SMT_11673 phases=3 bus1=189821.1.2.3 bus2= 249851.1.2.3 linecode=10_3 length=0.04958 units=km
New Line.SMT_11680 phases=3 bus1=329011.1.2.3.4 bus2= 329701.1.2.3.4 linecode=25_3 length=0.15145 units=km
New Line.SMT_11681 phases=3 bus1=327021.1.2.3 bus2= 327031.1.2.3 linecode=10_3 length=0.10462 units=km
New Line.SMT_11705 phases=3 bus1=328991.1.2.3.4 bus2= 329001.1.2.3.4 linecode=25_3 length=0.07703 units=km
New Line.SMT_11708 phases=3 bus1=293991.1.2.3 bus2= 294001.1.2.3 linecode=10_3 length=0.07841 units=km
New Line.SMT_11729 phases=3 bus1=328981.1.2.3.4 bus2= 328991.1.2.3.4 linecode=25_3 length=0.10748 units=km
New Line.SMT_11731 phases=1 bus1=193661.3 bus2= 193671.3 linecode=1_1 length=0.09599 units=km
New Line.SMT_11732 phases=3 bus1=328241.1.2.3 bus2= 328221.1.2.3 linecode=12_3 length=0.11693 units=km
New Line.SMT_11734 phases=3 bus1=326151.1.2.3.4 bus2= 326141.1.2.3.4 linecode=25_3 length=0.11928 units=km
New Line.SMT_11735 phases=1 bus1=328261.3 bus2= 328891.3 linecode=27_1 length=0.24125 units=km
New Line.SMT_11736 phases=1 bus1=328891.3 bus2= 293491.3 linecode=27_1 length=0.14618 units=km
New Line.SMT_11737 phases=1 bus1=18CF917.1 bus2= 321981.1 linecode=1_1 length=0.22687 units=km
New Line.SMT_11738 phases=3 bus1=254561.1.2.3 bus2= 254571.1.2.3 linecode=11_3 length=0.06214 units=km
New Line.SMT_11743 phases=3 bus1=193771.1.2.3 bus2= 193761.1.2.3 linecode=11_3 length=0.11372 units=km
New Line.SMT_11744 phases=3 bus1=496991.1.2.3 bus2= 254591.1.2.3 linecode=11_3 length=0.05337 units=km
New Line.SMT_11753 phases=3 bus1=123371.1.2.3 bus2= 123381.1.2.3 linecode=10_3 length=0.1163 units=km
New Line.SMT_11755 phases=3 bus1=327471.1.2.3 bus2= 327501.1.2.3 linecode=12_3 length=0.10395 units=km
New Line.SMT_11764 phases=1 bus1=23FR45.1 bus2= 207321.1 linecode=34_1 length=0.00311 units=km
New Line.SMT_11765 phases=3 bus1=105521.1.2.3 bus2= 196411.1.2.3 linecode=28_3 length=0.14633 units=km
New Line.SMT_11768 phases=1 bus1=625351.2 bus2= 625361.2 linecode=1_1 length=0.17057 units=km
New Line.SMT_11769 phases=3 bus1=329701.1.2.3.4 bus2= 329711.1.2.3.4 linecode=25_3 length=0.09948 units=km
New Line.SMT_11770 phases=1 bus1=625361.2 bus2= 625371.2 linecode=1_1 length=0.11065 units=km
New Line.SMT_11771 phases=3 bus1=308061.1.2.3 bus2= 322941.1.2.3 linecode=12_3 length=0.13153 units=km
New Line.SMT_11772 phases=3 bus1=308071.1.2.3 bus2= 357721.1.2.3 linecode=12_3 length=0.12238 units=km
New Line.SMT_11775 phases=3 bus1=166191.1.2.3 bus2= 259621.1.2.3 linecode=12_3 length=0.0722 units=km
New Line.SMT_11777 phases=3 bus1=165501.1.2.3 bus2= 165491.1.2.3 linecode=12_3 length=0.09998 units=km
New Line.SMT_11778 phases=3 bus1=165511.1.2.3 bus2= 165501.1.2.3 linecode=12_3 length=0.11851 units=km
New Line.SMT_11779 phases=3 bus1=165521.1.2.3 bus2= 165511.1.2.3 linecode=12_3 length=0.08732 units=km
New Line.SMT_1178 phases=3 bus1=649791.1.2.3 bus2= 649801.1.2.3 linecode=10_3 length=0.1109 units=km
New Line.SMT_11780 phases=3 bus1=166131.1.2.3 bus2= 165521.1.2.3 linecode=12_3 length=0.13706 units=km
New Line.SMT_11781 phases=3 bus1=166141.1.2.3 bus2= 166131.1.2.3 linecode=12_3 length=0.12042 units=km
New Line.SMT_11782 phases=2 bus1=224761.1.2 bus2= 222181.1.2 linecode=18_2 length=0.11536 units=km
New Line.SMT_11783 phases=3 bus1=175991.1.2.3 bus2= 174071.1.2.3 linecode=12_3 length=0.05166 units=km
New Line.SMT_11789 phases=3 bus1=342671.1.2.3 bus2= 308061.1.2.3 linecode=12_3 length=0.13251 units=km
New Line.SMT_11790 phases=1 bus1=194341.3 bus2= 194351.3 linecode=1_1 length=0.06395 units=km
New Line.SMT_11793 phases=3 bus1=114811.1.2.3 bus2= 114801.1.2.3 linecode=28_3 length=0.09998 units=km
New Line.SMT_11794 phases=3 bus1=332721.1.2.3 bus2= 257231.1.2.3 linecode=12_3 length=0.04036 units=km
New Line.SMT_11796 phases=3 bus1=351221.1.2.3 bus2= 131621.1.2.3 linecode=28_3 length=0.09351 units=km
New Line.SMT_11799 phases=3 bus1=205751.1.2.3 bus2= 205741.1.2.3 linecode=11_3 length=0.116 units=km
New Line.SMT_11803 phases=3 bus1=656081.1.2.3 bus2= 656071.1.2.3 linecode=36_3 length=0.09265 units=km
New Line.SMT_11810 phases=1 bus1=211011.3 bus2= 211001.3 linecode=1_1 length=0.16205 units=km
New Line.SMT_11811 phases=3 bus1=328091.1.2.3.4 bus2= 652191.1.2.3.4 linecode=25_3 length=0.107 units=km
New Line.SMT_11815 phases=3 bus1=194021.1.2.3 bus2= 271881.1.2.3 linecode=12_3 length=0.05309 units=km
New Line.SMT_11816 phases=1 bus1=194361.3 bus2= 194371.3 linecode=1_1 length=0.08452 units=km
New Line.SMT_11819 phases=1 bus1=207241.1 bus2= 207191.1 linecode=30_1 length=0.07976 units=km
New Line.SMT_11821 phases=2 bus1=654391.2.3 bus2= 183821.2.3 linecode=18_2 length=0.12605 units=km
New Line.SMT_11824 phases=3 bus1=210351.1.2.3 bus2= 644151.1.2.3 linecode=13_3 length=0.09588 units=km
New Line.SMT_11825 phases=3 bus1=644111.1.2.3 bus2= 644121.1.2.3 linecode=13_3 length=0.0992 units=km
New Line.SMT_11826 phases=3 bus1=644121.1.2.3 bus2= 644131.1.2.3 linecode=13_3 length=0.10114 units=km
New Line.SMT_11828 phases=3 bus1=123351.1.2.3 bus2= 123361.1.2.3 linecode=10_3 length=0.07616 units=km
New Line.SMT_11829 phases=3 bus1=224771.1.2.3 bus2= 224811.1.2.3 linecode=10_3 length=0.0411 units=km
New Line.SMT_1183 phases=3 bus1=649821.1.2.3 bus2= 649831.1.2.3 linecode=10_3 length=0.09599 units=km
New Line.SMT_11832 phases=3 bus1=172671.1.2.3 bus2= 172661.1.2.3 linecode=28_3 length=0.10009 units=km
New Line.SMT_11833 phases=3 bus1=258681.1.2.3.4 bus2= 326151.1.2.3.4 linecode=25_3 length=0.10028 units=km
New Line.SMT_11835 phases=3 bus1=619601.1.2.3 bus2= 624521.1.2.3 linecode=12_3 length=0.01513 units=km
New Line.SMT_11836 phases=3 bus1=619601.1.2.3 bus2= 174121.1.2.3 linecode=12_3 length=0.04329 units=km
New Line.SMT_11837 phases=3 bus1=105541.1.2.3 bus2= 105531.1.2.3 linecode=28_3 length=0.07219 units=km
New Line.SMT_1184 phases=3 bus1=649831.1.2.3 bus2= 649841.1.2.3 linecode=10_3 length=0.12378 units=km
New Line.SMT_11840 phases=3 bus1=296411.1.2.3 bus2= 296421.1.2.3 linecode=10_3 length=0.03048 units=km
New Line.SMT_11841 phases=3 bus1=624521.1.2.3 bus2= 624541.1.2.3 linecode=12_3 length=0.00364 units=km
New Line.SMT_11846 phases=3 bus1=172661.1.2.3 bus2= 105551.1.2.3 linecode=28_3 length=0.10346 units=km
New Line.SMT_11847 phases=2 bus1=222201.1.2 bus2= 222211.1.2 linecode=18_2 length=0.10714 units=km
New Line.SMT_11849 phases=3 bus1=194511.1.2.3 bus2= 194451.1.2.3 linecode=10_3 length=0.07923 units=km
New Line.SMT_1185 phases=1 bus1=233341.2 bus2= 638101.2 linecode=1_1 length=0.10391 units=km
New Line.SMT_11853 phases=1 bus1=207171.1 bus2= 442521.1 linecode=34_1 length=0.1559 units=km
New Line.SMT_11856 phases=2 bus1=190151.3.1 bus2= 190161.3.1 linecode=18_2 length=0.06531 units=km
New Line.SMT_11860 phases=3 bus1=326831.1.2.3 bus2= 326931.1.2.3 linecode=10_3 length=0.05977 units=km
New Line.SMT_11865 phases=1 bus1=289971.3 bus2= 366311.3 linecode=27_1 length=0.00447 units=km
New Line.SMT_11866 phases=3 bus1=326781.1.2.3 bus2= 326831.1.2.3 linecode=10_3 length=0.03722 units=km
New Line.SMT_11870 phases=1 bus1=376931.1 bus2= 207311.1 linecode=34_1 length=0.1515 units=km
New Line.SMT_11871 phases=3 bus1=326071.1.2.3 bus2= 364871.1.2.3 linecode=10_3 length=0.00412 units=km
New Line.SMT_11872 phases=3 bus1=23CS35.1.2.3 bus2= 346441.1.2.3 linecode=12_3 length=0.004 units=km
New Line.SMT_11873 phases=1 bus1=193671.3 bus2= 193681.3 linecode=1_1 length=0.07801 units=km
New Line.SMT_11879 phases=1 bus1=442521.1 bus2= 748481.1 linecode=34_1 length=0.13821 units=km
New Line.SMT_11892 phases=1 bus1=194381.3 bus2= 194401.3 linecode=1_1 length=0.11526 units=km
New Line.SMT_11897 phases=3 bus1=224791.1.2.3 bus2= 224771.1.2.3 linecode=10_3 length=0.06544 units=km
New Line.SMT_11898 phases=3 bus1=222521.1.2.3 bus2= 222531.1.2.3 linecode=10_3 length=0.10167 units=km
New Line.SMT_11904 phases=3 bus1=310651.1.2.3 bus2= 326791.1.2.3 linecode=10_3 length=0.05573 units=km
New Line.SMT_11910 phases=3 bus1=328171.1.2.3.4 bus2= 652171.1.2.3.4 linecode=25_3 length=0.0922 units=km
New Line.SMT_11911 phases=3 bus1=179571.1.2.3 bus2= 179631.1.2.3 linecode=12_3 length=0.03932 units=km
New Line.SMT_11912 phases=1 bus1=208961.1 bus2= 208971.1 linecode=1_1 length=0.22339 units=km
New Line.SMT_11919 phases=3 bus1=96361.1.2.3 bus2= 96351.1.2.3 linecode=28_3 length=0.10424 units=km
New Line.SMT_11922 phases=1 bus1=123261.1 bus2= 123161.1 linecode=1_1 length=0.13929 units=km
New Line.SMT_11924 phases=3 bus1=220031.1.2.3 bus2= 205751.1.2.3 linecode=11_3 length=0.08006 units=km
New Line.SMT_11925 phases=1 bus1=123131.1 bus2= 123121.1 linecode=1_1 length=0.11014 units=km
New Line.SMT_11929 phases=3 bus1=600301.1.2.3 bus2= 190931.1.2.3 linecode=10_3 length=0.08266 units=km
New Line.SMT_11930 phases=2 bus1=190121.3.1 bus2= 190131.3.1 linecode=18_2 length=0.06894 units=km
New Line.SMT_11935 phases=3 bus1=291491.1.2.3 bus2= 291481.1.2.3 linecode=12_3 length=0.10993 units=km
New Line.SMT_11936 phases=3 bus1=326101.1.2.3.4 bus2= 326091.1.2.3.4 linecode=25_3 length=0.0931 units=km
New Line.SMT_11937 phases=3 bus1=291501.1.2.3 bus2= 291491.1.2.3 linecode=12_3 length=0.11474 units=km
New Line.SMT_11938 phases=3 bus1=291511.1.2.3 bus2= 291501.1.2.3 linecode=12_3 length=0.10791 units=km
New Line.SMT_11939 phases=3 bus1=291531.1.2.3 bus2= 291521.1.2.3 linecode=12_3 length=0.12417 units=km
New Line.SMT_1194 phases=1 bus1=183341.3 bus2= 583511.3 linecode=1_1 length=0.03068 units=km
New Line.SMT_11940 phases=3 bus1=291541.1.2.3 bus2= 291531.1.2.3 linecode=12_3 length=0.12143 units=km
New Line.SMT_11949 phases=3 bus1=326801.1.2.3 bus2= 326821.1.2.3 linecode=10_3 length=0.04801 units=km
New Line.SMT_1195 phases=2 bus1=654361.2.3 bus2= 654371.2.3 linecode=18_2 length=0.09972 units=km
New Line.SMT_11950 phases=3 bus1=308571.1.2.3 bus2= 308401.1.2.3 linecode=12_3 length=0.10357 units=km
New Line.SMT_11951 phases=2 bus1=190161.3.1 bus2= 190171.3.1 linecode=18_2 length=0.07782 units=km
New Line.SMT_11952 phases=3 bus1=461371.1.2.3 bus2= 327471.1.2.3 linecode=12_3 length=0.11077 units=km
New Line.SMT_11953 phases=3 bus1=23CF705.1.2.3 bus2= 293781.1.2.3 linecode=10_3 length=0.08403 units=km
New Line.SMT_11954 phases=3 bus1=293781.1.2.3 bus2= 293791.1.2.3 linecode=10_3 length=0.0845 units=km
New Line.SMT_11956 phases=3 bus1=191051.1.2.3 bus2= 191061.1.2.3 linecode=12_3 length=0.03941 units=km
New Line.SMT_11957 phases=3 bus1=326091.1.2.3.4 bus2= 326071.1.2.3.4 linecode=25_3 length=0.11139 units=km
New Line.SMT_11966 phases=3 bus1=224761.1.2.3 bus2= 224751.1.2.3 linecode=10_3 length=0.09666 units=km
New Line.SMT_11971 phases=3 bus1=495381.1.2.3 bus2= 337501.1.2.3 linecode=38_3 length=0.07073 units=km
New Line.SMT_1198 phases=2 bus1=654381.2.3 bus2= 654391.2.3 linecode=18_2 length=0.09972 units=km
New Line.SMT_11981 phases=3 bus1=23CF704.1.2.3 bus2= 328041.1.2.3 linecode=10_3 length=0.05608 units=km
New Line.SMT_11982 phases=3 bus1=123341.1.2.3 bus2= 123351.1.2.3 linecode=10_3 length=0.125 units=km
New Line.SMT_11983 phases=1 bus1=123301.1 bus2= 123291.1 linecode=1_1 length=0.10805 units=km
New Line.SMT_1199 phases=2 bus1=654371.2.3 bus2= 654381.2.3 linecode=18_2 length=0.09873 units=km
New Line.SMT_11992 phases=3 bus1=123361.1.2.3 bus2= 123371.1.2.3 linecode=10_3 length=0.16405 units=km
New Line.SMT_11993 phases=1 bus1=652101.2 bus2= 325161.2 linecode=1_1 length=0.22649 units=km
New Line.SMT_11995 phases=3 bus1=258671.1.2.3.4 bus2= 636681.1.2.3.4 linecode=25_3 length=0.131 units=km
New Line.SMT_11998 phases=3 bus1=258661.1.2.3.4 bus2= 258671.1.2.3.4 linecode=25_3 length=0.08676 units=km
New Line.SMT_1200 phases=2 bus1=654341.2.3 bus2= 654351.2.3 linecode=18_2 length=0.07023 units=km
New Line.SMT_12001 phases=3 bus1=107791.1.2.3 bus2= 126851.1.2.3 linecode=12_3 length=0.08605 units=km
New Line.SMT_12002 phases=3 bus1=291421.1.2.3 bus2= 169991.1.2.3 linecode=12_3 length=0.14526 units=km
New Line.SMT_12003 phases=3 bus1=291441.1.2.3 bus2= 291421.1.2.3 linecode=12_3 length=0.17649 units=km
New Line.SMT_12004 phases=3 bus1=291451.1.2.3 bus2= 291441.1.2.3 linecode=12_3 length=0.12468 units=km
New Line.SMT_12005 phases=3 bus1=291471.1.2.3 bus2= 291461.1.2.3 linecode=12_3 length=0.10805 units=km
New Line.SMT_12008 phases=1 bus1=536091.1 bus2= 123261.1 linecode=1_1 length=0.10102 units=km
New Line.SMT_1201 phases=2 bus1=582621.2.3 bus2= 654341.2.3 linecode=18_2 length=0.08001 units=km
New Line.SMT_12011 phases=1 bus1=275241.3 bus2= 295001.3 linecode=1_1 length=0.00095 units=km
New Line.SMT_12012 phases=3 bus1=105531.1.2.3 bus2= 105511.1.2.3 linecode=28_3 length=0.10538 units=km
New Line.SMT_12015 phases=3 bus1=172701.1.2.3 bus2= 172691.1.2.3 linecode=28_3 length=0.10791 units=km
New Line.SMT_12016 phases=1 bus1=165101.3 bus2= 222471.3 linecode=1_1 length=0.17834 units=km
New Line.SMT_12017 phases=2 bus1=190131.3.1 bus2= 190141.3.1 linecode=18_2 length=0.08682 units=km
New Line.SMT_12018 phases=3 bus1=172681.1.2.3 bus2= 172671.1.2.3 linecode=28_3 length=0.09118 units=km
New Line.SMT_12020 phases=3 bus1=358581.1.2.3 bus2= 83241.1.2.3 linecode=28_3 length=0.03338 units=km
New Line.SMT_12025 phases=3 bus1=114801.1.2.3 bus2= 83331.1.2.3 linecode=28_3 length=0.09862 units=km
New Line.SMT_12031 phases=3 bus1=190911.1.2.3 bus2= 190921.1.2.3 linecode=12_3 length=0.04123 units=km
New Line.SMT_12034 phases=1 bus1=207251.1 bus2= 207241.1 linecode=34_1 length=0.09902 units=km
New Line.SMT_12035 phases=3 bus1=326131.1.2.3.4 bus2= 326121.1.2.3.4 linecode=25_3 length=0.08649 units=km
New Line.SMT_12039 phases=3 bus1=329761.1.2.3.4 bus2= 329771.1.2.3.4 linecode=25_3 length=0.08724 units=km
New Line.SMT_12040 phases=2 bus1=222191.1.2 bus2= 222201.1.2 linecode=18_2 length=0.09538 units=km
New Line.SMT_12043 phases=1 bus1=328131.2 bus2= 328141.2 linecode=1_1 length=0.22701 units=km
New Line.SMT_12049 phases=3 bus1=291551.1.2.3 bus2= 291541.1.2.3 linecode=12_3 length=0.11236 units=km
New Line.SMT_12050 phases=3 bus1=291561.1.2.3 bus2= 291551.1.2.3 linecode=12_3 length=0.11474 units=km
New Line.SMT_12051 phases=3 bus1=291571.1.2.3 bus2= 291561.1.2.3 linecode=12_3 length=0.11611 units=km
New Line.SMT_12052 phases=3 bus1=291581.1.2.3 bus2= 291571.1.2.3 linecode=12_3 length=0.112 units=km
New Line.SMT_12053 phases=3 bus1=181711.1.2.3 bus2= 259591.1.2.3 linecode=12_3 length=0.09278 units=km
New Line.SMT_12055 phases=1 bus1=194351.3 bus2= 194361.3 linecode=1_1 length=0.08138 units=km
New Line.SMT_12060 phases=3 bus1=329741.1.2.3.4 bus2= 329751.1.2.3.4 linecode=25_3 length=0.09888 units=km
New Line.SMT_12061 phases=1 bus1=194371.3 bus2= 194381.3 linecode=1_1 length=0.07839 units=km
New Line.SMT_12062 phases=3 bus1=174051.1.2.3 bus2= 174061.1.2.3 linecode=10_3 length=0.06546 units=km
New Line.SMT_12070 phases=3 bus1=131611.1.2.3 bus2= 131601.1.2.3 linecode=28_3 length=0.08476 units=km
New Line.SMT_12071 phases=1 bus1=194401.3 bus2= 211011.3 linecode=1_1 length=0.16449 units=km
New Line.SMT_12072 phases=2 bus1=222181.1.2 bus2= 222191.1.2 linecode=18_2 length=0.10904 units=km
New Line.SMT_12074 phases=1 bus1=194321.3 bus2= 194331.3 linecode=1_1 length=0.09178 units=km
New Line.SMT_12080 phases=3 bus1=329771.1.2.3 bus2= 295661.1.2.3 linecode=10_3 length=0.00447 units=km
New Line.SMT_12081 phases=1 bus1=328151.2 bus2= 625351.2 linecode=1_1 length=0.10183 units=km
New Line.SMT_12084 phases=1 bus1=210981.3 bus2= 210961.3 linecode=1_1 length=0.1843 units=km
New Line.SMT_12085 phases=3 bus1=23CS41.1.2.3 bus2= 191501.1.2.3 linecode=12_3 length=0.0557 units=km
New Line.SMT_12091 phases=1 bus1=123161.1 bus2= 123151.1 linecode=1_1 length=0.06227 units=km
New Line.SMT_12095 phases=3 bus1=96351.1.2.3 bus2= 96341.1.2.3 linecode=28_3 length=0.10181 units=km
New Line.SMT_12096 phases=1 bus1=123151.1 bus2= 123131.1 linecode=1_1 length=0.10719 units=km
New Line.SMT_12099 phases=3 bus1=329751.1.2.3.4 bus2= 329761.1.2.3.4 linecode=25_3 length=0.10072 units=km
New Line.SMT_12108 phases=3 bus1=649471.1.2.3 bus2= 649501.1.2.3 linecode=10_3 length=0.07601 units=km
New Line.SMT_12109 phases=3 bus1=103051.1.2.3 bus2= 103061.1.2.3 linecode=10_3 length=0.10847 units=km
New Line.SMT_12110 phases=3 bus1=209771.1.2.3 bus2= 209781.1.2.3 linecode=12_3 length=0.05595 units=km
New Line.SMT_12111 phases=1 bus1=424911.1 bus2= 123201.1 linecode=1_1 length=0.15318 units=km
New Line.SMT_12115 phases=3 bus1=649501.1.2.3 bus2= 649511.1.2.3 linecode=10_3 length=0.08786 units=km
New Line.SMT_12117 phases=3 bus1=177781.1.2.3 bus2= 266071.1.2.3 linecode=12_3 length=0.003 units=km
New Line.SMT_12119 phases=1 bus1=175111.1 bus2= 175121.1 linecode=27_1 length=0.10412 units=km
New Line.SMT_12120 phases=3 bus1=98911.1.2.3 bus2= 98921.1.2.3 linecode=10_3 length=0.11491 units=km
New Line.SMT_12122 phases=2 bus1=139811.1.2 bus2= 139821.1.2 linecode=18_2 length=0.07701 units=km
New Line.SMT_12123 phases=3 bus1=105461.1.2.3 bus2= 105451.1.2.3 linecode=28_3 length=0.11179 units=km
New Line.SMT_12125 phases=3 bus1=176971.1.2.3 bus2= 177751.1.2.3 linecode=12_3 length=0.04061 units=km
New Line.SMT_12126 phases=3 bus1=97161.1.2.3 bus2= 114861.1.2.3 linecode=28_3 length=0.0811 units=km
New Line.SMT_12129 phases=1 bus1=175941.3 bus2= 175931.3 linecode=1_1 length=0.07842 units=km
New Line.SMT_12130 phases=3 bus1=378321.1.2.3 bus2= 296411.1.2.3 linecode=10_3 length=0.04 units=km
New Line.SMT_12132 phases=1 bus1=175201.1 bus2= 175211.1 linecode=27_1 length=0.22506 units=km
New Line.SMT_12133 phases=3 bus1=114821.1.2.3 bus2= 114811.1.2.3 linecode=28_3 length=0.1004 units=km
New Line.SMT_12136 phases=1 bus1=138831.3 bus2= 138841.3 linecode=1_1 length=0.16458 units=km
New Line.SMT_12137 phases=3 bus1=658441.1.2.3 bus2= 280661.1.2.3 linecode=11_3 length=0.04342 units=km
New Line.SMT_12138 phases=3 bus1=195131.1.2.3 bus2= 195141.1.2.3 linecode=12_3 length=0.03048 units=km
New Line.SMT_12139 phases=1 bus1=215521.2 bus2= 271011.2 linecode=1_1 length=0.04031 units=km
New Line.SMT_12140 phases=3 bus1=254531.1.2.3 bus2= 219081.1.2.3 linecode=11_3 length=0.02687 units=km
New Line.SMT_12142 phases=3 bus1=113661.1.2.3 bus2= 113651.1.2.3 linecode=28_3 length=0.06896 units=km
New Line.SMT_12143 phases=1 bus1=113121.3 bus2= 113131.3 linecode=1_1 length=0.37047 units=km
New Line.SMT_12144 phases=3 bus1=190871.1.2.3 bus2= 190881.1.2.3 linecode=12_3 length=0.04001 units=km
New Line.SMT_12145 phases=2 bus1=222241.1.2 bus2= 222251.1.2 linecode=18_2 length=0.10477 units=km
New Line.SMT_12147 phases=1 bus1=105841.3 bus2= 105861.3 linecode=1_1 length=0.08683 units=km