New Load.NTUC_25568_MOD2 bus=RM_25568.1 phases=1 conn=Wye kv=0.22 kw=-0.4275 pf=0.92 Daily=cc30_Util Model=2 status=variable vminpu=0.92 vmaxpu=1.1 
New Load.NTUC_25568_MOD3 bus=RM_25568.1 phases=1 conn=Wye kv=0.22 kw=-0.4275 pf=0.92 Daily=cc30_Util Model=3 status=variable vminpu=0.92 vmaxpu=1.1 

New Load.NTUC_73454_MOD2 bus=RM_73454.1 phases=1 conn=Wye kv=0.22 kw=-0.3805 pf=0.92 Daily=cc30_Util Model=2 status=variable vminpu=0.92 vmaxpu=1.1 
New Load.NTUC_73454_MOD3 bus=RM_73454.1 phases=1 conn=Wye kv=0.22 kw=-0.3805 pf=0.92 Daily=cc30_Util Model=3 status=variable vminpu=0.92 vmaxpu=1.1 

New Load.NTUC_57580_MOD2 bus=RM_57580.2 phases=1 conn=Wye kv=0.219 kw=-0.3175 pf=0.92 Daily=cc18_Util Model=2 status=variable vminpu=0.92 vmaxpu=1.1 
New Load.NTUC_57580_MOD3 bus=RM_57580.2 phases=1 conn=Wye kv=0.219 kw=-0.3175 pf=0.92 Daily=cc18_Util Model=3 status=variable vminpu=0.92 vmaxpu=1.1 

New Load.NTUC_28976_MOD2 bus=RM_28976.1 phases=1 conn=Wye kv=0.219 kw=-0.2785 pf=0.92 Daily=cc17_Util Model=2 status=variable vminpu=0.92 vmaxpu=1.1 
New Load.NTUC_28976_MOD3 bus=RM_28976.1 phases=1 conn=Wye kv=0.219 kw=-0.2785 pf=0.92 Daily=cc17_Util Model=3 status=variable vminpu=0.92 vmaxpu=1.1 

New Load.NTUC_29152_MOD2 bus=RM_29152.2 phases=1 conn=Wye kv=0.219 kw=-0.5705 pf=0.92 Daily=cc18_Util Model=2 status=variable vminpu=0.92 vmaxpu=1.1 
New Load.NTUC_29152_MOD3 bus=RM_29152.2 phases=1 conn=Wye kv=0.219 kw=-0.5705 pf=0.92 Daily=cc18_Util Model=3 status=variable vminpu=0.92 vmaxpu=1.1 

New Load.NTUC_46046_MOD2 bus=RM_46046.1 phases=1 conn=Wye kv=0.219 kw=-0.1395 pf=0.92 Daily=cc16_Util Model=2 status=variable vminpu=0.92 vmaxpu=1.1 
New Load.NTUC_46046_MOD3 bus=RM_46046.1 phases=1 conn=Wye kv=0.219 kw=-0.1395 pf=0.92 Daily=cc16_Util Model=3 status=variable vminpu=0.92 vmaxpu=1.1 

New Load.NTUC_45319_MOD2 bus=RM_45319.1 phases=1 conn=Wye kv=0.219 kw=-0.345 pf=0.92 Daily=cc17_Util Model=2 status=variable vminpu=0.92 vmaxpu=1.1 
New Load.NTUC_45319_MOD3 bus=RM_45319.1 phases=1 conn=Wye kv=0.219 kw=-0.345 pf=0.92 Daily=cc17_Util Model=3 status=variable vminpu=0.92 vmaxpu=1.1 

New Load.NTUC_63681_MOD2 bus=RM_63681.1.2 phases=1 conn=Wye kv=0.219 kw=-0.002 pf=0.92 Daily=cc16_Util Model=2 status=variable vminpu=0.92 vmaxpu=1.1 
New Load.NTUC_63681_MOD3 bus=RM_63681.1.2 phases=1 conn=Wye kv=0.219 kw=-0.002 pf=0.92 Daily=cc16_Util Model=3 status=variable vminpu=0.92 vmaxpu=1.1 

New Load.NTUC_56750_MOD2 bus=RM_56750.1.2.3 phases=1 conn=Delta kv=0.38 kw=-0.5945 pf=0.92 Daily=cc18_Util Model=2 status=variable vminpu=0.92 vmaxpu=1.1 
New Load.NTUC_56750_MOD3 bus=RM_56750.1.2.3 phases=1 conn=Delta kv=0.38 kw=-0.5945 pf=0.92 Daily=cc18_Util Model=3 status=variable vminpu=0.92 vmaxpu=1.1 

New Load.NTUC_43556_MOD2 bus=RM_43556.1 phases=1 conn=Wye kv=0.219 kw=-0.372 pf=0.92 Daily=cc18_Util Model=2 status=variable vminpu=0.92 vmaxpu=1.1 
New Load.NTUC_43556_MOD3 bus=RM_43556.1 phases=1 conn=Wye kv=0.219 kw=-0.372 pf=0.92 Daily=cc18_Util Model=3 status=variable vminpu=0.92 vmaxpu=1.1 

New Load.NTUC_58348_MOD2 bus=BT_116213_1.1 phases=1 conn=Wye kv=0.219 kw=-0.263 pf=0.92 Daily=cc17_Util Model=2 status=variable vminpu=0.92 vmaxpu=1.1 
New Load.NTUC_58348_MOD3 bus=BT_116213_1.1 phases=1 conn=Wye kv=0.219 kw=-0.263 pf=0.92 Daily=cc17_Util Model=3 status=variable vminpu=0.92 vmaxpu=1.1 

New Load.NTUC_48510_MOD2 bus=RM_48510.2 phases=1 conn=Wye kv=0.219 kw=-0.415 pf=0.92 Daily=cc18_Util Model=2 status=variable vminpu=0.92 vmaxpu=1.1 
New Load.NTUC_48510_MOD3 bus=RM_48510.2 phases=1 conn=Wye kv=0.219 kw=-0.415 pf=0.92 Daily=cc18_Util Model=3 status=variable vminpu=0.92 vmaxpu=1.1 

New Load.NTUC_57655_MOD2 bus=RM_57655.1 phases=1 conn=Wye kv=0.219 kw=-0.2155 pf=0.92 Daily=cc29_Util Model=2 status=variable vminpu=0.92 vmaxpu=1.1 
New Load.NTUC_57655_MOD3 bus=RM_57655.1 phases=1 conn=Wye kv=0.219 kw=-0.2155 pf=0.92 Daily=cc29_Util Model=3 status=variable vminpu=0.92 vmaxpu=1.1 

New Load.NTUC_49740_MOD2 bus=RM_49740.2 phases=1 conn=Wye kv=0.219 kw=-0.0985 pf=0.92 Daily=cc16_Util Model=2 status=variable vminpu=0.92 vmaxpu=1.1 
New Load.NTUC_49740_MOD3 bus=RM_49740.2 phases=1 conn=Wye kv=0.219 kw=-0.0985 pf=0.92 Daily=cc16_Util Model=3 status=variable vminpu=0.92 vmaxpu=1.1 

New Load.NTUC_63673_MOD2 bus=RM_63673.1.2 phases=1 conn=Wye kv=0.219 kw=-0.316 pf=0.92 Daily=cc17_Util Model=2 status=variable vminpu=0.92 vmaxpu=1.1 
New Load.NTUC_63673_MOD3 bus=RM_63673.1.2 phases=1 conn=Wye kv=0.219 kw=-0.316 pf=0.92 Daily=cc17_Util Model=3 status=variable vminpu=0.92 vmaxpu=1.1 

New Load.NTUC_63672_MOD2 bus=RM_63672.3 phases=1 conn=Wye kv=0.219 kw=-0.727 pf=0.92 Daily=cc18_Util Model=2 status=variable vminpu=0.92 vmaxpu=1.1 
New Load.NTUC_63672_MOD3 bus=RM_63672.3 phases=1 conn=Wye kv=0.219 kw=-0.727 pf=0.92 Daily=cc18_Util Model=3 status=variable vminpu=0.92 vmaxpu=1.1 

New Load.NTUC_33259_MOD2 bus=RM_33259.2 phases=1 conn=Wye kv=0.219 kw=-0.272 pf=0.92 Daily=cc17_Util Model=2 status=variable vminpu=0.92 vmaxpu=1.1 
New Load.NTUC_33259_MOD3 bus=RM_33259.2 phases=1 conn=Wye kv=0.219 kw=-0.272 pf=0.92 Daily=cc17_Util Model=3 status=variable vminpu=0.92 vmaxpu=1.1 

New Load.NTUC_30098_MOD2 bus=RM_30098.2 phases=1 conn=Wye kv=0.219 kw=-0.4665 pf=0.92 Daily=cc18_Util Model=2 status=variable vminpu=0.92 vmaxpu=1.1 
New Load.NTUC_30098_MOD3 bus=RM_30098.2 phases=1 conn=Wye kv=0.219 kw=-0.4665 pf=0.92 Daily=cc18_Util Model=3 status=variable vminpu=0.92 vmaxpu=1.1 

New Load.NTUC_28782_MOD2 bus=BT_116209_1.1 phases=1 conn=Wye kv=0.219 kw=-0.2915 pf=0.92 Daily=cc17_Util Model=2 status=variable vminpu=0.92 vmaxpu=1.1 
New Load.NTUC_28782_MOD3 bus=BT_116209_1.1 phases=1 conn=Wye kv=0.219 kw=-0.2915 pf=0.92 Daily=cc17_Util Model=3 status=variable vminpu=0.92 vmaxpu=1.1 

New Load.NTUC_75356_MOD2 bus=BT_116209_1.2 phases=1 conn=Wye kv=0.219 kw=-0.8145 pf=0.92 Daily=cc25_Util Model=2 status=variable vminpu=0.92 vmaxpu=1.1 
New Load.NTUC_75356_MOD3 bus=BT_116209_1.2 phases=1 conn=Wye kv=0.219 kw=-0.8145 pf=0.92 Daily=cc25_Util Model=3 status=variable vminpu=0.92 vmaxpu=1.1 

New Load.NTUC_77536_MOD2 bus=BT_116209_1.1 phases=1 conn=Wye kv=0.219 kw=-0.1125 pf=0.92 Daily=cc16_Util Model=2 status=variable vminpu=0.92 vmaxpu=1.1 
New Load.NTUC_77536_MOD3 bus=BT_116209_1.1 phases=1 conn=Wye kv=0.219 kw=-0.1125 pf=0.92 Daily=cc16_Util Model=3 status=variable vminpu=0.92 vmaxpu=1.1 

New Load.NTUC_48883_MOD2 bus=RM_48883.1 phases=1 conn=Wye kv=0.22 kw=-0.081 pf=0.92 Daily=cc29_Util Model=2 status=variable vminpu=0.92 vmaxpu=1.1 
New Load.NTUC_48883_MOD3 bus=RM_48883.1 phases=1 conn=Wye kv=0.22 kw=-0.081 pf=0.92 Daily=cc29_Util Model=3 status=variable vminpu=0.92 vmaxpu=1.1 

New Load.NTUC_19884_MOD2 bus=RM_19884.1.2 phases=1 conn=Delta kv=0.44 kw=-0.3715 pf=0.92 Daily=cc30_Util Model=2 status=variable vminpu=0.92 vmaxpu=1.1 
New Load.NTUC_19884_MOD3 bus=RM_19884.1.2 phases=1 conn=Delta kv=0.44 kw=-0.3715 pf=0.92 Daily=cc30_Util Model=3 status=variable vminpu=0.92 vmaxpu=1.1 

New Load.NTUC_19880_MOD2 bus=RM_19880.1.2 phases=1 conn=Delta kv=0.44 kw=-0.514 pf=0.92 Daily=cc30_Util Model=2 status=variable vminpu=0.92 vmaxpu=1.1 
New Load.NTUC_19880_MOD3 bus=RM_19880.1.2 phases=1 conn=Delta kv=0.44 kw=-0.514 pf=0.92 Daily=cc30_Util Model=3 status=variable vminpu=0.92 vmaxpu=1.1 

New Load.NTUC_49512_MOD2 bus=RM_49512.1 phases=1 conn=Wye kv=0.219 kw=-0.2015 pf=0.92 Daily=cc17_Util Model=2 status=variable vminpu=0.92 vmaxpu=1.1 
New Load.NTUC_49512_MOD3 bus=RM_49512.1 phases=1 conn=Wye kv=0.219 kw=-0.2015 pf=0.92 Daily=cc17_Util Model=3 status=variable vminpu=0.92 vmaxpu=1.1 

New Load.NTUC_57203_MOD2 bus=RM_57203.3 phases=1 conn=Wye kv=0.219 kw=-0.3565 pf=0.92 Daily=cc18_Util Model=2 status=variable vminpu=0.92 vmaxpu=1.1 
New Load.NTUC_57203_MOD3 bus=RM_57203.3 phases=1 conn=Wye kv=0.219 kw=-0.3565 pf=0.92 Daily=cc18_Util Model=3 status=variable vminpu=0.92 vmaxpu=1.1 

New Load.NTUC_81005_MOD2 bus=RM_81005.1 phases=1 conn=Wye kv=0.22 kw=-1.4705 pf=0.92 Daily=cc31_Util Model=2 status=variable vminpu=0.92 vmaxpu=1.1 
New Load.NTUC_81005_MOD3 bus=RM_81005.1 phases=1 conn=Wye kv=0.22 kw=-1.4705 pf=0.92 Daily=cc31_Util Model=3 status=variable vminpu=0.92 vmaxpu=1.1 

New Load.NTUC_62793_MOD2 bus=RM_62793.1 phases=1 conn=Wye kv=0.22 kw=-0.253 pf=0.92 Daily=cc29_Util Model=2 status=variable vminpu=0.92 vmaxpu=1.1 
New Load.NTUC_62793_MOD3 bus=RM_62793.1 phases=1 conn=Wye kv=0.22 kw=-0.253 pf=0.92 Daily=cc29_Util Model=3 status=variable vminpu=0.92 vmaxpu=1.1 

New Load.NTUC_8644_MOD2 bus=RM_8644.1.2 phases=1 conn=Delta kv=0.44 kw=-1.938 pf=0.92 Daily=cc32_Util Model=2 status=variable vminpu=0.92 vmaxpu=1.1 
New Load.NTUC_8644_MOD3 bus=RM_8644.1.2 phases=1 conn=Delta kv=0.44 kw=-1.938 pf=0.92 Daily=cc32_Util Model=3 status=variable vminpu=0.92 vmaxpu=1.1 

New Load.NTUC_8581_MOD2 bus=RM_8581.1.2 phases=1 conn=Delta kv=0.44 kw=-0.2895 pf=0.92 Daily=cc29_Util Model=2 status=variable vminpu=0.92 vmaxpu=1.1 
New Load.NTUC_8581_MOD3 bus=RM_8581.1.2 phases=1 conn=Delta kv=0.44 kw=-0.2895 pf=0.92 Daily=cc29_Util Model=3 status=variable vminpu=0.92 vmaxpu=1.1 

New Load.NTUC_22717_MOD2 bus=RM_22717.1.2 phases=1 conn=Delta kv=0.38 kw=-0.752 pf=0.92 Daily=cc30_Util Model=2 status=variable vminpu=0.92 vmaxpu=1.1 
New Load.NTUC_22717_MOD3 bus=RM_22717.1.2 phases=1 conn=Delta kv=0.38 kw=-0.752 pf=0.92 Daily=cc30_Util Model=3 status=variable vminpu=0.92 vmaxpu=1.1 

New Load.NTUC_44421_MOD2 bus=RM_44421.1.2.3 phases=3 conn=Delta kv=0.38 kw=-2.06 pf=0.92 Daily=cc32_Util Model=2 status=variable vminpu=0.92 vmaxpu=1.1 
New Load.NTUC_44421_MOD3 bus=RM_44421.1.2.3 phases=3 conn=Delta kv=0.38 kw=-2.06 pf=0.92 Daily=cc32_Util Model=3 status=variable vminpu=0.92 vmaxpu=1.1 

New Load.NTUC_18182_MOD2 bus=RM_18182.1.2 phases=1 conn=Delta kv=0.44 kw=-0.29 pf=0.92 Daily=cc17_Util Model=2 status=variable vminpu=0.92 vmaxpu=1.1 
New Load.NTUC_18182_MOD3 bus=RM_18182.1.2 phases=1 conn=Delta kv=0.44 kw=-0.29 pf=0.92 Daily=cc17_Util Model=3 status=variable vminpu=0.92 vmaxpu=1.1 

New Load.NTUC_54523_MOD2 bus=RM_54523.1 phases=1 conn=Wye kv=0.22 kw=-0.631 pf=0.92 Daily=cc30_Util Model=2 status=variable vminpu=0.92 vmaxpu=1.1 
New Load.NTUC_54523_MOD3 bus=RM_54523.1 phases=1 conn=Wye kv=0.22 kw=-0.631 pf=0.92 Daily=cc30_Util Model=3 status=variable vminpu=0.92 vmaxpu=1.1 

New Load.NTUC_18671_MOD2 bus=RM_18671.1.2 phases=1 conn=Delta kv=0.44 kw=-0.6005 pf=0.92 Daily=cc30_Util Model=2 status=variable vminpu=0.92 vmaxpu=1.1 
New Load.NTUC_18671_MOD3 bus=RM_18671.1.2 phases=1 conn=Delta kv=0.44 kw=-0.6005 pf=0.92 Daily=cc30_Util Model=3 status=variable vminpu=0.92 vmaxpu=1.1 

New Load.NTUC_35271_MOD2 bus=RM_35271.1.2 phases=1 conn=Delta kv=0.44 kw=-0.6585 pf=0.92 Daily=cc30_Util Model=2 status=variable vminpu=0.92 vmaxpu=1.1 
New Load.NTUC_35271_MOD3 bus=RM_35271.1.2 phases=1 conn=Delta kv=0.44 kw=-0.6585 pf=0.92 Daily=cc30_Util Model=3 status=variable vminpu=0.92 vmaxpu=1.1 

New Load.NTUC_18711_MOD2 bus=RM_18711.1.2 phases=1 conn=Delta kv=0.44 kw=-0.788 pf=0.92 Daily=cc30_Util Model=2 status=variable vminpu=0.92 vmaxpu=1.1 
New Load.NTUC_18711_MOD3 bus=RM_18711.1.2 phases=1 conn=Delta kv=0.44 kw=-0.788 pf=0.92 Daily=cc30_Util Model=3 status=variable vminpu=0.92 vmaxpu=1.1 

New Load.NTUC_57578_MOD2 bus=RM_57578.2 phases=1 conn=Wye kv=0.22 kw=-0.182 pf=0.92 Daily=cc17_Util Model=2 status=variable vminpu=0.92 vmaxpu=1.1 
New Load.NTUC_57578_MOD3 bus=RM_57578.2 phases=1 conn=Wye kv=0.22 kw=-0.182 pf=0.92 Daily=cc17_Util Model=3 status=variable vminpu=0.92 vmaxpu=1.1 

New Load.NTUC_83134_MOD2 bus=RM_83134.1.2 phases=1 conn=Delta kv=0.44 kw=-0.4275 pf=0.92 Daily=cc30_Util Model=2 status=variable vminpu=0.92 vmaxpu=1.1 
New Load.NTUC_83134_MOD3 bus=RM_83134.1.2 phases=1 conn=Delta kv=0.44 kw=-0.4275 pf=0.92 Daily=cc30_Util Model=3 status=variable vminpu=0.92 vmaxpu=1.1 

New Load.NTUC_80619_MOD2 bus=RM_80619.1 phases=1 conn=Wye kv=0.22 kw=-0.2565 pf=0.92 Daily=cc29_Util Model=2 status=variable vminpu=0.92 vmaxpu=1.1 
New Load.NTUC_80619_MOD3 bus=RM_80619.1 phases=1 conn=Wye kv=0.22 kw=-0.2565 pf=0.92 Daily=cc29_Util Model=3 status=variable vminpu=0.92 vmaxpu=1.1 

New Load.NTUC_67441_MOD2 bus=RM_67441.2 phases=1 conn=Wye kv=0.22 kw=-0.1485 pf=0.92 Daily=cc29_Util Model=2 status=variable vminpu=0.92 vmaxpu=1.1 
New Load.NTUC_67441_MOD3 bus=RM_67441.2 phases=1 conn=Wye kv=0.22 kw=-0.1485 pf=0.92 Daily=cc29_Util Model=3 status=variable vminpu=0.92 vmaxpu=1.1 

New Load.NTUC_73235_MOD2 bus=RM_73235.2 phases=1 conn=Wye kv=0.22 kw=-0.285 pf=0.92 Daily=cc17_Util Model=2 status=variable vminpu=0.92 vmaxpu=1.1 
New Load.NTUC_73235_MOD3 bus=RM_73235.2 phases=1 conn=Wye kv=0.22 kw=-0.285 pf=0.92 Daily=cc17_Util Model=3 status=variable vminpu=0.92 vmaxpu=1.1 

New Load.NTUC_59207_MOD2 bus=RM_59207.1.2 phases=1 conn=Delta kv=0.44 kw=-0.788 pf=0.92 Daily=cc30_Util Model=2 status=variable vminpu=0.92 vmaxpu=1.1 
New Load.NTUC_59207_MOD3 bus=RM_59207.1.2 phases=1 conn=Delta kv=0.44 kw=-0.788 pf=0.92 Daily=cc30_Util Model=3 status=variable vminpu=0.92 vmaxpu=1.1 

New Load.NTUC_8828_MOD2 bus=RM_8828.1.2 phases=1 conn=Delta kv=0.44 kw=-0.781 pf=0.92 Daily=cc30_Util Model=2 status=variable vminpu=0.92 vmaxpu=1.1 
New Load.NTUC_8828_MOD3 bus=RM_8828.1.2 phases=1 conn=Delta kv=0.44 kw=-0.781 pf=0.92 Daily=cc30_Util Model=3 status=variable vminpu=0.92 vmaxpu=1.1 

New Load.NTUC_80496_MOD2 bus=RM_80496.1 phases=1 conn=Wye kv=0.22 kw=-0.3245 pf=0.92 Daily=cc17_Util Model=2 status=variable vminpu=0.92 vmaxpu=1.1 
New Load.NTUC_80496_MOD3 bus=RM_80496.1 phases=1 conn=Wye kv=0.22 kw=-0.3245 pf=0.92 Daily=cc17_Util Model=3 status=variable vminpu=0.92 vmaxpu=1.1 

New Load.NTUC_18147_MOD2 bus=RM_18147.1.2.3 phases=3 conn=Delta kv=0.38 kw=-1.4695 pf=0.92 Daily=cc31_Util Model=2 status=variable vminpu=0.92 vmaxpu=1.1 
New Load.NTUC_18147_MOD3 bus=RM_18147.1.2.3 phases=3 conn=Delta kv=0.38 kw=-1.4695 pf=0.92 Daily=cc31_Util Model=3 status=variable vminpu=0.92 vmaxpu=1.1 

New Load.NTUC_18148_MOD2 bus=RM_18148.1.2.3 phases=3 conn=Delta kv=0.38 kw=-0.154 pf=0.92 Daily=cc31_Util Model=2 status=variable vminpu=0.92 vmaxpu=1.1 
New Load.NTUC_18148_MOD3 bus=RM_18148.1.2.3 phases=3 conn=Delta kv=0.38 kw=-0.154 pf=0.92 Daily=cc31_Util Model=3 status=variable vminpu=0.92 vmaxpu=1.1 

New Load.NTUC_77534_MOD2 bus=RM_77534.1.2.3 phases=3 conn=Delta kv=0.38 kw=-0.1805 pf=0.92 Daily=cc29_Util Model=2 status=variable vminpu=0.92 vmaxpu=1.1 
New Load.NTUC_77534_MOD3 bus=RM_77534.1.2.3 phases=3 conn=Delta kv=0.38 kw=-0.1805 pf=0.92 Daily=cc29_Util Model=3 status=variable vminpu=0.92 vmaxpu=1.1 

New Load.NTUC_26512_MOD2 bus=RM_26512.2 phases=1 conn=Wye kv=0.22 kw=-0.7015 pf=0.92 Daily=cc30_Util Model=2 status=variable vminpu=0.92 vmaxpu=1.1 
New Load.NTUC_26512_MOD3 bus=RM_26512.2 phases=1 conn=Wye kv=0.22 kw=-0.7015 pf=0.92 Daily=cc30_Util Model=3 status=variable vminpu=0.92 vmaxpu=1.1 

New Load.NTUC_41959_MOD2 bus=RM_41959.1.2 phases=1 conn=Delta kv=0.44 kw=-0.04 pf=0.92 Daily=cc29_Util Model=2 status=variable vminpu=0.92 vmaxpu=1.1 
New Load.NTUC_41959_MOD3 bus=RM_41959.1.2 phases=1 conn=Delta kv=0.44 kw=-0.04 pf=0.92 Daily=cc29_Util Model=3 status=variable vminpu=0.92 vmaxpu=1.1 

New Load.NTUC_70080_MOD2 bus=RM_70080.1.2 phases=1 conn=Delta kv=0.44 kw=-0.788 pf=0.92 Daily=cc31_Util Model=2 status=variable vminpu=0.92 vmaxpu=1.1 
New Load.NTUC_70080_MOD3 bus=RM_70080.1.2 phases=1 conn=Delta kv=0.44 kw=-0.788 pf=0.92 Daily=cc31_Util Model=3 status=variable vminpu=0.92 vmaxpu=1.1 

New Load.NTUC_18375_MOD2 bus=RM_18375.1.2 phases=1 conn=Delta kv=0.38 kw=-0.3835 pf=0.92 Daily=cc18_Util Model=2 status=variable vminpu=0.92 vmaxpu=1.1 
New Load.NTUC_18375_MOD3 bus=RM_18375.1.2 phases=1 conn=Delta kv=0.38 kw=-0.3835 pf=0.92 Daily=cc18_Util Model=3 status=variable vminpu=0.92 vmaxpu=1.1 

New Load.NTUC_18319_MOD2 bus=RM_18319.1.2 phases=1 conn=Delta kv=0.44 kw=-0.34 pf=0.92 Daily=cc18_Util Model=2 status=variable vminpu=0.92 vmaxpu=1.1 
New Load.NTUC_18319_MOD3 bus=RM_18319.1.2 phases=1 conn=Delta kv=0.44 kw=-0.34 pf=0.92 Daily=cc18_Util Model=3 status=variable vminpu=0.92 vmaxpu=1.1 

New Load.NTUC_74333_MOD2 bus=RM_74333.1.2 phases=1 conn=Delta kv=0.44 kw=-0.6385 pf=0.92 Daily=cc18_Util Model=2 status=variable vminpu=0.92 vmaxpu=1.1 
New Load.NTUC_74333_MOD3 bus=RM_74333.1.2 phases=1 conn=Delta kv=0.44 kw=-0.6385 pf=0.92 Daily=cc18_Util Model=3 status=variable vminpu=0.92 vmaxpu=1.1 

New Load.NTUC_70357_MOD2 bus=RM_70357.1 phases=1 conn=Wye kv=0.22 kw=-0.3225 pf=0.92 Daily=cc17_Util Model=2 status=variable vminpu=0.92 vmaxpu=1.1 
New Load.NTUC_70357_MOD3 bus=RM_70357.1 phases=1 conn=Wye kv=0.22 kw=-0.3225 pf=0.92 Daily=cc17_Util Model=3 status=variable vminpu=0.92 vmaxpu=1.1 

New Load.NTUC_72623_MOD2 bus=RM_72623.1.2 phases=1 conn=Delta kv=0.44 kw=-0.2495 pf=0.92 Daily=cc29_Util Model=2 status=variable vminpu=0.92 vmaxpu=1.1 
New Load.NTUC_72623_MOD3 bus=RM_72623.1.2 phases=1 conn=Delta kv=0.44 kw=-0.2495 pf=0.92 Daily=cc29_Util Model=3 status=variable vminpu=0.92 vmaxpu=1.1 

New Load.NTUC_44703_MOD2 bus=RM_44703.1 phases=1 conn=Wye kv=0.22 kw=-0.4635 pf=0.92 Daily=cc30_Util Model=2 status=variable vminpu=0.92 vmaxpu=1.1 
New Load.NTUC_44703_MOD3 bus=RM_44703.1 phases=1 conn=Wye kv=0.22 kw=-0.4635 pf=0.92 Daily=cc30_Util Model=3 status=variable vminpu=0.92 vmaxpu=1.1 

New Load.NTUC_80484_MOD2 bus=RM_80484.1 phases=1 conn=Wye kv=0.219 kw=-0.436 pf=0.92 Daily=cc18_Util Model=2 status=variable vminpu=0.92 vmaxpu=1.1 
New Load.NTUC_80484_MOD3 bus=RM_80484.1 phases=1 conn=Wye kv=0.219 kw=-0.436 pf=0.92 Daily=cc18_Util Model=3 status=variable vminpu=0.92 vmaxpu=1.1 

New Load.NTUC_40587_MOD2 bus=RM_40587.1 phases=1 conn=Wye kv=0.219 kw=-0.118 pf=0.92 Daily=cc16_Util Model=2 status=variable vminpu=0.92 vmaxpu=1.1 
New Load.NTUC_40587_MOD3 bus=RM_40587.1 phases=1 conn=Wye kv=0.219 kw=-0.118 pf=0.92 Daily=cc16_Util Model=3 status=variable vminpu=0.92 vmaxpu=1.1 

New Load.NTUC_68215_MOD2 bus=BT_17595_1.2 phases=1 conn=Wye kv=0.22 kw=-0.4545 pf=0.92 Daily=cc30_Util Model=2 status=variable vminpu=0.92 vmaxpu=1.1 
New Load.NTUC_68215_MOD3 bus=BT_17595_1.2 phases=1 conn=Wye kv=0.22 kw=-0.4545 pf=0.92 Daily=cc30_Util Model=3 status=variable vminpu=0.92 vmaxpu=1.1 

New Load.NTUC_70904_MOD2 bus=RM_70904.1.2 phases=1 conn=Delta kv=0.44 kw=-0.3805 pf=0.92 Daily=cc30_Util Model=2 status=variable vminpu=0.92 vmaxpu=1.1 
New Load.NTUC_70904_MOD3 bus=RM_70904.1.2 phases=1 conn=Delta kv=0.44 kw=-0.3805 pf=0.92 Daily=cc30_Util Model=3 status=variable vminpu=0.92 vmaxpu=1.1 

New Load.NTUC_18655_MOD2 bus=RM_18655.1.2 phases=1 conn=Delta kv=0.44 kw=-0.1865 pf=0.92 Daily=cc17_Util Model=2 status=variable vminpu=0.92 vmaxpu=1.1 
New Load.NTUC_18655_MOD3 bus=RM_18655.1.2 phases=1 conn=Delta kv=0.44 kw=-0.1865 pf=0.92 Daily=cc17_Util Model=3 status=variable vminpu=0.92 vmaxpu=1.1 

New Load.NTUC_39124_MOD2 bus=RM_39124.1 phases=1 conn=Wye kv=0.22 kw=-0.3255 pf=0.92 Daily=cc29_Util Model=2 status=variable vminpu=0.92 vmaxpu=1.1 
New Load.NTUC_39124_MOD3 bus=RM_39124.1 phases=1 conn=Wye kv=0.22 kw=-0.3255 pf=0.92 Daily=cc29_Util Model=3 status=variable vminpu=0.92 vmaxpu=1.1 

New Load.NTUC_45871_MOD2 bus=RM_45871.1 phases=1 conn=Wye kv=0.22 kw=-0.0195 pf=0.92 Daily=cc29_Util Model=2 status=variable vminpu=0.92 vmaxpu=1.1 
New Load.NTUC_45871_MOD3 bus=RM_45871.1 phases=1 conn=Wye kv=0.22 kw=-0.0195 pf=0.92 Daily=cc29_Util Model=3 status=variable vminpu=0.92 vmaxpu=1.1 

New Load.NTUC_18113_MOD2 bus=RM_18113.1.2.3 phases=3 conn=Delta kv=0.38 kw=-0.154 pf=0.92 Daily=cc32_Util Model=2 status=variable vminpu=0.92 vmaxpu=1.1 
New Load.NTUC_18113_MOD3 bus=RM_18113.1.2.3 phases=3 conn=Delta kv=0.38 kw=-0.154 pf=0.92 Daily=cc32_Util Model=3 status=variable vminpu=0.92 vmaxpu=1.1 

New Load.NTUC_79362_MOD2 bus=RM_79362.1 phases=1 conn=Wye kv=0.219 kw=-0.272 pf=0.92 Daily=cc17_Util Model=2 status=variable vminpu=0.92 vmaxpu=1.1 
New Load.NTUC_79362_MOD3 bus=RM_79362.1 phases=1 conn=Wye kv=0.219 kw=-0.272 pf=0.92 Daily=cc17_Util Model=3 status=variable vminpu=0.92 vmaxpu=1.1 

New Load.NTUC_48884_MOD2 bus=RM_48884.1.2.3 phases=3 conn=Delta kv=0.38 kw=-3.033 pf=0.92 Daily=cc32_Util Model=2 status=variable vminpu=0.92 vmaxpu=1.1 
New Load.NTUC_48884_MOD3 bus=RM_48884.1.2.3 phases=3 conn=Delta kv=0.38 kw=-3.033 pf=0.92 Daily=cc32_Util Model=3 status=variable vminpu=0.92 vmaxpu=1.1 

New Load.NTUC_18160_MOD2 bus=RM_18160.1.2 phases=1 conn=Delta kv=0.44 kw=-0.3625 pf=0.92 Daily=cc18_Util Model=2 status=variable vminpu=0.92 vmaxpu=1.1 
New Load.NTUC_18160_MOD3 bus=RM_18160.1.2 phases=1 conn=Delta kv=0.44 kw=-0.3625 pf=0.92 Daily=cc18_Util Model=3 status=variable vminpu=0.92 vmaxpu=1.1 

New Load.NTUC_8569_MOD2 bus=RM_8569.1.2 phases=1 conn=Wye kv=0.22 kw=-1.1145 pf=0.92 Daily=cc31_Util Model=2 status=variable vminpu=0.92 vmaxpu=1.1 
New Load.NTUC_8569_MOD3 bus=RM_8569.1.2 phases=1 conn=Wye kv=0.22 kw=-1.1145 pf=0.92 Daily=cc31_Util Model=3 status=variable vminpu=0.92 vmaxpu=1.1 

New Load.NTUC_44904_MOD2 bus=RM_44904.1 phases=1 conn=Wye kv=0.22 kw=-0.3625 pf=0.92 Daily=cc30_Util Model=2 status=variable vminpu=0.92 vmaxpu=1.1 
New Load.NTUC_44904_MOD3 bus=RM_44904.1 phases=1 conn=Wye kv=0.22 kw=-0.3625 pf=0.92 Daily=cc30_Util Model=3 status=variable vminpu=0.92 vmaxpu=1.1 

New Load.NTUC_47855_MOD2 bus=RM_47855.2 phases=1 conn=Wye kv=0.219 kw=-0.305 pf=0.92 Daily=cc17_Util Model=2 status=variable vminpu=0.92 vmaxpu=1.1 
New Load.NTUC_47855_MOD3 bus=RM_47855.2 phases=1 conn=Wye kv=0.219 kw=-0.305 pf=0.92 Daily=cc17_Util Model=3 status=variable vminpu=0.92 vmaxpu=1.1 

New Load.NTUC_18777_MOD2 bus=RM_18777.1 phases=1 conn=Wye kv=0.22 kw=-0.6495 pf=0.92 Daily=cc18_Util Model=2 status=variable vminpu=0.92 vmaxpu=1.1 
New Load.NTUC_18777_MOD3 bus=RM_18777.1 phases=1 conn=Wye kv=0.22 kw=-0.6495 pf=0.92 Daily=cc18_Util Model=3 status=variable vminpu=0.92 vmaxpu=1.1 

New Load.NTUC_18785_MOD2 bus=RM_18785.3 phases=1 conn=Wye kv=0.219 kw=-0.338 pf=0.92 Daily=cc18_Util Model=2 status=variable vminpu=0.92 vmaxpu=1.1 
New Load.NTUC_18785_MOD3 bus=RM_18785.3 phases=1 conn=Wye kv=0.219 kw=-0.338 pf=0.92 Daily=cc18_Util Model=3 status=variable vminpu=0.92 vmaxpu=1.1 

New Load.NTUC_46611_MOD2 bus=RM_46611.1 phases=1 conn=Wye kv=0.22 kw=-0.2235 pf=0.92 Daily=cc17_Util Model=2 status=variable vminpu=0.92 vmaxpu=1.1 
New Load.NTUC_46611_MOD3 bus=RM_46611.1 phases=1 conn=Wye kv=0.22 kw=-0.2235 pf=0.92 Daily=cc17_Util Model=3 status=variable vminpu=0.92 vmaxpu=1.1 

New Load.NTUC_30720_MOD2 bus=RM_30720.1 phases=1 conn=Wye kv=0.22 kw=-0.1425 pf=0.92 Daily=cc29_Util Model=2 status=variable vminpu=0.92 vmaxpu=1.1 
New Load.NTUC_30720_MOD3 bus=RM_30720.1 phases=1 conn=Wye kv=0.22 kw=-0.1425 pf=0.92 Daily=cc29_Util Model=3 status=variable vminpu=0.92 vmaxpu=1.1 

New Load.NTUC_18778_MOD2 bus=RM_18778.1.2 phases=1 conn=Delta kv=0.44 kw=-0.7845 pf=0.92 Daily=cc30_Util Model=2 status=variable vminpu=0.92 vmaxpu=1.1 
New Load.NTUC_18778_MOD3 bus=RM_18778.1.2 phases=1 conn=Delta kv=0.44 kw=-0.7845 pf=0.92 Daily=cc30_Util Model=3 status=variable vminpu=0.92 vmaxpu=1.1 

New Load.NTUC_46619_MOD2 bus=RM_46619.1 phases=1 conn=Wye kv=0.22 kw=-0.052 pf=0.92 Daily=cc16_Util Model=2 status=variable vminpu=0.92 vmaxpu=1.1 
New Load.NTUC_46619_MOD3 bus=RM_46619.1 phases=1 conn=Wye kv=0.22 kw=-0.052 pf=0.92 Daily=cc16_Util Model=3 status=variable vminpu=0.92 vmaxpu=1.1 

New Load.NTUC_41746_MOD2 bus=RM_41746.1.2 phases=1 conn=Delta kv=0.44 kw=-1.4195 pf=0.92 Daily=cc31_Util Model=2 status=variable vminpu=0.92 vmaxpu=1.1 
New Load.NTUC_41746_MOD3 bus=RM_41746.1.2 phases=1 conn=Delta kv=0.44 kw=-1.4195 pf=0.92 Daily=cc31_Util Model=3 status=variable vminpu=0.92 vmaxpu=1.1 

New Load.NTUC_71794_MOD2 bus=RM_71794.1 phases=1 conn=Wye kv=0.219 kw=-0.316 pf=0.92 Daily=cc17_Util Model=2 status=variable vminpu=0.92 vmaxpu=1.1 
New Load.NTUC_71794_MOD3 bus=RM_71794.1 phases=1 conn=Wye kv=0.219 kw=-0.316 pf=0.92 Daily=cc17_Util Model=3 status=variable vminpu=0.92 vmaxpu=1.1 

New Load.NTUC_32305_MOD2 bus=RM_32305.1 phases=1 conn=Wye kv=0.22 kw=-0.2405 pf=0.92 Daily=cc29_Util Model=2 status=variable vminpu=0.92 vmaxpu=1.1 
New Load.NTUC_32305_MOD3 bus=RM_32305.1 phases=1 conn=Wye kv=0.22 kw=-0.2405 pf=0.92 Daily=cc29_Util Model=3 status=variable vminpu=0.92 vmaxpu=1.1 

New Load.NTUC_46088_MOD2 bus=RM_46088.1.2.3 phases=3 conn=Delta kv=0.38 kw=-7.6385 pf=0.92 Daily=cc27_Util Model=2 status=variable vminpu=0.92 vmaxpu=1.1 
New Load.NTUC_46088_MOD3 bus=RM_46088.1.2.3 phases=3 conn=Delta kv=0.38 kw=-7.6385 pf=0.92 Daily=cc27_Util Model=3 status=variable vminpu=0.92 vmaxpu=1.1 

New Load.NTUC_73452_MOD2 bus=BT_125392_1.1.2 phases=1 conn=Delta kv=0.38 kw=-0.3325 pf=0.92 Daily=cc18_Util Model=2 status=variable vminpu=0.92 vmaxpu=1.1 
New Load.NTUC_73452_MOD3 bus=BT_125392_1.1.2 phases=1 conn=Delta kv=0.38 kw=-0.3325 pf=0.92 Daily=cc18_Util Model=3 status=variable vminpu=0.92 vmaxpu=1.1 

New Load.NTUC_75364_MOD2 bus=BT_125392_1.1.2.3 phases=3 conn=Delta kv=0.38 kw=-0.018 pf=0.92 Daily=cc25_Util Model=2 status=variable vminpu=0.92 vmaxpu=1.1 
New Load.NTUC_75364_MOD3 bus=BT_125392_1.1.2.3 phases=3 conn=Delta kv=0.38 kw=-0.018 pf=0.92 Daily=cc25_Util Model=3 status=variable vminpu=0.92 vmaxpu=1.1 

New Load.NTUC_73460_MOD2 bus=BT_125392_1.1.2 phases=1 conn=Delta kv=0.38 kw=-0.084 pf=0.92 Daily=cc16_Util Model=2 status=variable vminpu=0.92 vmaxpu=1.1 
New Load.NTUC_73460_MOD3 bus=BT_125392_1.1.2 phases=1 conn=Delta kv=0.38 kw=-0.084 pf=0.92 Daily=cc16_Util Model=3 status=variable vminpu=0.92 vmaxpu=1.1 

New Load.NTUC_68964_MOD2 bus=RM_68964.1.2.3 phases=3 conn=Delta kv=0.38 kw=-4.603 pf=0.92 Daily=cc27_Util Model=2 status=variable vminpu=0.92 vmaxpu=1.1 
New Load.NTUC_68964_MOD3 bus=RM_68964.1.2.3 phases=3 conn=Delta kv=0.38 kw=-4.603 pf=0.92 Daily=cc27_Util Model=3 status=variable vminpu=0.92 vmaxpu=1.1 

New Load.NTUC_26631_MOD2 bus=RM_26631.1.2 phases=1 conn=Delta kv=0.44 kw=-0.5005 pf=0.92 Daily=cc18_Util Model=2 status=variable vminpu=0.92 vmaxpu=1.1 
New Load.NTUC_26631_MOD3 bus=RM_26631.1.2 phases=1 conn=Delta kv=0.44 kw=-0.5005 pf=0.92 Daily=cc18_Util Model=3 status=variable vminpu=0.92 vmaxpu=1.1 

New Load.NTUC_8722_MOD2 bus=RM_8722.1.2 phases=1 conn=Delta kv=0.44 kw=-0.182 pf=0.92 Daily=cc17_Util Model=2 status=variable vminpu=0.92 vmaxpu=1.1 
New Load.NTUC_8722_MOD3 bus=RM_8722.1.2 phases=1 conn=Delta kv=0.44 kw=-0.182 pf=0.92 Daily=cc17_Util Model=3 status=variable vminpu=0.92 vmaxpu=1.1 

New Load.NTUC_77208_MOD2 bus=RM_77208.1 phases=1 conn=Wye kv=0.22 kw=-0.076 pf=0.92 Daily=cc29_Util Model=2 status=variable vminpu=0.92 vmaxpu=1.1 
New Load.NTUC_77208_MOD3 bus=RM_77208.1 phases=1 conn=Wye kv=0.22 kw=-0.076 pf=0.92 Daily=cc29_Util Model=3 status=variable vminpu=0.92 vmaxpu=1.1 

New Load.NTUC_77781_MOD2 bus=RM_77781.2 phases=1 conn=Wye kv=0.219 kw=-0.233 pf=0.92 Daily=cc29_Util Model=2 status=variable vminpu=0.92 vmaxpu=1.1 
New Load.NTUC_77781_MOD3 bus=RM_77781.2 phases=1 conn=Wye kv=0.219 kw=-0.233 pf=0.92 Daily=cc29_Util Model=3 status=variable vminpu=0.92 vmaxpu=1.1 

New Load.NTUC_46326_MOD2 bus=RM_46326.1.2.3 phases=3 conn=Delta kv=0.38 kw=-0.333 pf=0.92 Daily=cc29_Util Model=2 status=variable vminpu=0.92 vmaxpu=1.1 
New Load.NTUC_46326_MOD3 bus=RM_46326.1.2.3 phases=3 conn=Delta kv=0.38 kw=-0.333 pf=0.92 Daily=cc29_Util Model=3 status=variable vminpu=0.92 vmaxpu=1.1 

New Load.NTUC_44543_MOD2 bus=RM_44543.2 phases=1 conn=Wye kv=0.22 kw=-0.047 pf=0.92 Daily=cc29_Util Model=2 status=variable vminpu=0.92 vmaxpu=1.1 
New Load.NTUC_44543_MOD3 bus=RM_44543.2 phases=1 conn=Wye kv=0.22 kw=-0.047 pf=0.92 Daily=cc29_Util Model=3 status=variable vminpu=0.92 vmaxpu=1.1 

New Load.NTUC_20336_MOD2 bus=RM_20336.1.2 phases=1 conn=Delta kv=0.44 kw=-0.4005 pf=0.92 Daily=cc30_Util Model=2 status=variable vminpu=0.92 vmaxpu=1.1 
New Load.NTUC_20336_MOD3 bus=RM_20336.1.2 phases=1 conn=Delta kv=0.44 kw=-0.4005 pf=0.92 Daily=cc30_Util Model=3 status=variable vminpu=0.92 vmaxpu=1.1 

New Load.NTUC_76955_MOD2 bus=RM_76955.1 phases=1 conn=Wye kv=0.22 kw=-0.086 pf=0.92 Daily=cc16_Util Model=2 status=variable vminpu=0.92 vmaxpu=1.1 
New Load.NTUC_76955_MOD3 bus=RM_76955.1 phases=1 conn=Wye kv=0.22 kw=-0.086 pf=0.92 Daily=cc16_Util Model=3 status=variable vminpu=0.92 vmaxpu=1.1 

New Load.NTUC_72500_MOD2 bus=RM_72500.1.2 phases=1 conn=Delta kv=0.44 kw=-0.2655 pf=0.92 Daily=cc17_Util Model=2 status=variable vminpu=0.92 vmaxpu=1.1 
New Load.NTUC_72500_MOD3 bus=RM_72500.1.2 phases=1 conn=Delta kv=0.44 kw=-0.2655 pf=0.92 Daily=cc17_Util Model=3 status=variable vminpu=0.92 vmaxpu=1.1 

New Load.NTUC_75812_MOD2 bus=RM_75812.1.2 phases=1 conn=Delta kv=0.38 kw=-0.4735 pf=0.92 Daily=cc18_Util Model=2 status=variable vminpu=0.92 vmaxpu=1.1 
New Load.NTUC_75812_MOD3 bus=RM_75812.1.2 phases=1 conn=Delta kv=0.38 kw=-0.4735 pf=0.92 Daily=cc18_Util Model=3 status=variable vminpu=0.92 vmaxpu=1.1 

New Load.NTUC_87514_MOD2 bus=RM_87514.1 phases=1 conn=Wye kv=0.219 kw=-0.0055 pf=0.92 Daily=cc16_Util Model=2 status=variable vminpu=0.92 vmaxpu=1.1 
New Load.NTUC_87514_MOD3 bus=RM_87514.1 phases=1 conn=Wye kv=0.219 kw=-0.0055 pf=0.92 Daily=cc16_Util Model=3 status=variable vminpu=0.92 vmaxpu=1.1 

New Load.NTUC_47912_MOD2 bus=RM_47912.1 phases=1 conn=Wye kv=0.22 kw=-0.0485 pf=0.92 Daily=cc16_Util Model=2 status=variable vminpu=0.92 vmaxpu=1.1 
New Load.NTUC_47912_MOD3 bus=RM_47912.1 phases=1 conn=Wye kv=0.22 kw=-0.0485 pf=0.92 Daily=cc16_Util Model=3 status=variable vminpu=0.92 vmaxpu=1.1 

New Load.NTUC_53426_MOD2 bus=RM_53426.1 phases=1 conn=Wye kv=0.22 kw=-0.0545 pf=0.92 Daily=cc29_Util Model=2 status=variable vminpu=0.92 vmaxpu=1.1 
New Load.NTUC_53426_MOD3 bus=RM_53426.1 phases=1 conn=Wye kv=0.22 kw=-0.0545 pf=0.92 Daily=cc29_Util Model=3 status=variable vminpu=0.92 vmaxpu=1.1 

New Load.NTUC_77865_MOD2 bus=RM_77865.1.2 phases=1 conn=Delta kv=0.44 kw=-0.1335 pf=0.92 Daily=cc29_Util Model=2 status=variable vminpu=0.92 vmaxpu=1.1 
New Load.NTUC_77865_MOD3 bus=RM_77865.1.2 phases=1 conn=Delta kv=0.44 kw=-0.1335 pf=0.92 Daily=cc29_Util Model=3 status=variable vminpu=0.92 vmaxpu=1.1 
