New Line.SMT_1004 phases=3 bus1=198281.1.2.3 bus2= 341711.1.2.3 linecode=10_3 length=0.03627 units=km
New Line.SMT_1014 phases=3 bus1=171731.1.2.3 bus2= 631791.1.2.3 linecode=10_3 length=0.05685 units=km
New Line.SMT_10420 phases=3 bus1=468991.1.2.3 bus2= 483961.1.2.3 linecode=13_3 length=0.04925 units=km
New Line.SMT_10672 phases=3 bus1=25CF1416.1.2.3 bus2= 618261.1.2.3 linecode=10_3 length=0.03822 units=km
New Line.SMT_10739 phases=3 bus1=16881.1.2.3 bus2= 16891.1.2.3 linecode=11_3 length=0.04022 units=km
New Line.SMT_1076 phases=1 bus1=274751.2 bus2= 765691.2 linecode=1_1 length=0.0016 units=km
New Line.SMT_1077 phases=1 bus1=645871.2 bus2= 645881.2 linecode=1_1 length=0.1203 units=km
New Line.SMT_10773 phases=3 bus1=468811.1.2.3 bus2= 550961.1.2.3 linecode=11_3 length=0.07378 units=km
New Line.SMT_10778 phases=1 bus1=235821.2 bus2= 8081.2 linecode=1_1 length=0.0555 units=km
New Line.SMT_10816 phases=3 bus1=16891.1.2.3 bus2= 16901.1.2.3 linecode=11_3 length=0.03982 units=km
New Line.SMT_1092 phases=3 bus1=332341.1.2.3 bus2= 332351.1.2.3 linecode=28_3 length=0.04162 units=km
New Line.SMT_1097 phases=1 bus1=97551.3 bus2= 210541.3 linecode=1_1 length=0.04007 units=km
New Line.SMT_1125 phases=1 bus1=102371.3 bus2= 97541.3 linecode=1_1 length=0.10891 units=km
New Line.SMT_1134 phases=1 bus1=645881.2 bus2= 645901.2 linecode=1_1 length=0.1205 units=km
New Line.SMT_11458 phases=3 bus1=439481.1.2.3 bus2= 506061.1.2.3 linecode=10_3 length=0.00817 units=km
New Line.SMT_1152 phases=3 bus1=306731.1.2.3 bus2= 306741.1.2.3 linecode=10_3 length=0.0573 units=km
New Line.SMT_1158 phases=1 bus1=235811.2 bus2= 81.2 linecode=1_1 length=0.08806 units=km
New Line.SMT_11694 phases=3 bus1=574361.1.2.3 bus2= 621391.1.2.3 linecode=10_3 length=0.04105 units=km
New Line.SMT_1171 phases=3 bus1=332371.1.2.3 bus2= 332381.1.2.3 linecode=28_3 length=0.03487 units=km
New Line.SMT_11723 phases=1 bus1=254961.1 bus2= 362171.1 linecode=1_1 length=0.16792 units=km
New Line.SMT_12082 phases=1 bus1=201301.2 bus2= 624171.2 linecode=1_1 length=0.30353 units=km
New Line.SMT_12087 phases=1 bus1=624171.2 bus2= 624201.2 linecode=1_1 length=0.13182 units=km
New Line.SMT_12134 phases=1 bus1=114761.1 bus2= 690181.1 linecode=1_1 length=0.03599 units=km
New Line.SMT_1218 phases=3 bus1=211911.1.2.3 bus2= 211901.1.2.3 linecode=28_3 length=0.03578 units=km
New Line.SMT_1220 phases=3 bus1=332351.1.2.3 bus2= 332361.1.2.3 linecode=28_3 length=0.03652 units=km
New Line.SMT_1226 phases=3 bus1=198291.1.2.3 bus2= 198281.1.2.3 linecode=10_3 length=0.00964 units=km
New Line.SMT_1229 phases=3 bus1=261291.1.2.3 bus2= 198271.1.2.3 linecode=10_3 length=0.02561 units=km
New Line.SMT_1253 phases=3 bus1=93761.1.2.3 bus2= 639681.1.2.3 linecode=11_3 length=0.00232 units=km
New Line.SMT_12568 phases=3 bus1=130511.1.2.3 bus2= 544331.1.2.3 linecode=11_3 length=0.05421 units=km
New Line.SMT_12676 phases=3 bus1=632981.1.2.3 bus2= 655911.1.2.3 linecode=10_3 length=0.02052 units=km
New Line.SMT_12949 phases=3 bus1=665271.1.2.3 bus2= 261341.1.2.3 linecode=10_3 length=0.004 units=km
New Line.SMT_12950 phases=3 bus1=351651.1.2.3 bus2= 204011.1.2.3 linecode=10_3 length=0.04673 units=km
New Line.SMT_12979 phases=3 bus1=204011.1.2.3 bus2= 332251.1.2.3 linecode=10_3 length=0.05738 units=km
New Line.SMT_13213 phases=3 bus1=171741.1.2.3 bus2= 171751.1.2.3 linecode=10_3 length=0.03936 units=km
New Line.SMT_13549 phases=3 bus1=96701.1.2.3 bus2= 581511.1.2.3 linecode=10_3 length=0.10693 units=km
New Line.SMT_13550 phases=3 bus1=581511.1.2.3 bus2= 581521.1.2.3 linecode=10_3 length=0.07214 units=km
New Line.SMT_13654 phases=1 bus1=80111.3 bus2= 371511.3 linecode=27_1 length=0.00338 units=km
New Line.SMT_13767 phases=3 bus1=12261.1.2.3 bus2= 463781.1.2.3 linecode=10_3 length=0.13315 units=km
New Line.SMT_13823 phases=3 bus1=463781.1.2.3 bus2= 165171.1.2.3 linecode=10_3 length=0.05626 units=km
New Line.SMT_13887 phases=3 bus1=165171.1.2.3 bus2= 12281.1.2.3 linecode=10_3 length=0.07749 units=km
New Line.SMT_1408 phases=3 bus1=163901.1.2.3 bus2= 199301.1.2.3 linecode=10_3 length=0.03478 units=km
New Line.SMT_14445 phases=3 bus1=463781.1.2.3 bus2= 12271.1.2.3 linecode=10_3 length=0.02002 units=km
New Line.SMT_1466 phases=3 bus1=220081.1.2.3 bus2= 220071.1.2.3 linecode=28_3 length=0.0354 units=km
New Line.SMT_1513 phases=3 bus1=332361.1.2.3 bus2= 332371.1.2.3 linecode=28_3 length=0.03699 units=km
New Line.SMT_1563 phases=3 bus1=130661.1.2.3 bus2= 130651.1.2.3 linecode=11_3 length=0.07737 units=km
New Line.SMT_15691 phases=3 bus1=611581.1.2.3 bus2= 611591.1.2.3 linecode=13_3 length=0.08472 units=km
New Line.SMT_15710 phases=3 bus1=615581.1.2.3 bus2= 615591.1.2.3 linecode=13_3 length=0.04438 units=km
New Line.SMT_15777 phases=1 bus1=362171.1 bus2= 254991.1 linecode=1_1 length=0.0755 units=km
New Line.SMT_15801 phases=3 bus1=274011.1.2.3 bus2= 425861.1.2.3 linecode=10_3 length=0.00188 units=km
New Line.SMT_15813 phases=3 bus1=50721.1.2.3 bus2= 50731.1.2.3 linecode=10_3 length=0.03081 units=km
New Line.SMT_15902 phases=3 bus1=211081.1.2.3 bus2= 211091.1.2.3 linecode=10_3 length=0.10265 units=km
New Line.SMT_15904 phases=3 bus1=541561.1.2.3 bus2= 541601.1.2.3 linecode=10_3 length=0.26153 units=km
New Line.SMT_15905 phases=3 bus1=541601.1.2.3 bus2= 541611.1.2.3 linecode=10_3 length=0.08468 units=km
New Line.SMT_1598 phases=3 bus1=198271.1.2.3 bus2= 198261.1.2.3 linecode=10_3 length=0.03842 units=km
New Line.SMT_15993 phases=3 bus1=131571.1.2.3 bus2= 321001.1.2.3 linecode=11_3 length=0.08676 units=km
New Line.SMT_15997 phases=3 bus1=541551.1.2.3 bus2= 617421.1.2.3 linecode=10_3 length=0.0794 units=km
New Line.SMT_16026 phases=1 bus1=109611.3 bus2= 425701.3 linecode=1_1 length=0.00417 units=km
New Line.SMT_16033 phases=1 bus1=273951.1 bus2= 540321.1 linecode=1_1 length=0.00325 units=km
New Line.SMT_16067 phases=3 bus1=359911.1.2.3 bus2= 607801.1.2.3 linecode=10_3 length=0.03905 units=km
New Line.SMT_1607 phases=3 bus1=145721.1.2.3 bus2= 145731.1.2.3 linecode=10_3 length=0.034 units=km
New Line.SMT_16179 phases=3 bus1=630631.1.2.3 bus2= 199171.1.2.3 linecode=10_3 length=0.05099 units=km
New Line.SMT_16211 phases=3 bus1=270621.1.2.3 bus2= 611581.1.2.3 linecode=13_3 length=0.09729 units=km
New Line.SMT_16231 phases=3 bus1=216432.1.2.3 bus2= 491701.1.2.3 linecode=28_3 length=0.02742 units=km
New Line.SMT_16278 phases=3 bus1=112221.1.2.3 bus2= 341761.1.2.3 linecode=10_3 length=0.13027 units=km
New Line.SMT_16316 phases=1 bus1=641431.2 bus2= 555491.2 linecode=1_1 length=0.00235 units=km
New Line.SMT_16344 phases=3 bus1=611591.1.2.3 bus2= 615351.1.2.3 linecode=13_3 length=0.10161 units=km
New Line.SMT_16345 phases=3 bus1=615351.1.2.3 bus2= 615371.1.2.3 linecode=13_3 length=0.0813 units=km
New Line.SMT_16346 phases=3 bus1=615371.1.2.3 bus2= 615581.1.2.3 linecode=13_3 length=0.11136 units=km
New Line.SMT_16349 phases=3 bus1=29031.1.2.3 bus2= 425661.1.2.3 linecode=10_3 length=0.05323 units=km
New Line.SMT_16361 phases=3 bus1=359931.1.2.3 bus2= 607701.1.2.3 linecode=10_3 length=0.02 units=km
New Line.SMT_1640 phases=3 bus1=341711.1.2.3 bus2= 341721.1.2.3 linecode=10_3 length=0.05622 units=km
New Line.SMT_16455 phases=1 bus1=113461.3 bus2= 586431.3 linecode=34_1 length=0.09802 units=km
New Line.SMT_16456 phases=3 bus1=506061.1.2.3 bus2= 692501.1.2.3 linecode=10_3 length=0.05108 units=km
New Line.SMT_16475 phases=3 bus1=607731.1.2.3 bus2= 607741.1.2.3 linecode=10_3 length=0.03107 units=km
New Line.SMT_16513 phases=3 bus1=104231.1.2.3 bus2= 597361.1.2.3 linecode=13_3 length=0.00195 units=km
New Line.SMT_16517 phases=3 bus1=363871.1.2.3 bus2= 188091.1.2.3 linecode=10_3 length=0.06488 units=km
New Line.SMT_16559 phases=3 bus1=610801.1.2.3 bus2= 26091.1.2.3 linecode=28_3 length=0.10696 units=km
New Line.SMT_16589 phases=3 bus1=695861.1.2.3 bus2= 306881.1.2.3 linecode=3_3 length=0.04561 units=km
New Line.SMT_16593 phases=3 bus1=25CF1007.1.2.3 bus2= 695861.1.2.3 linecode=3_3 length=0.05875 units=km
New Line.SMT_16613 phases=3 bus1=740821.1.2.3 bus2= 542401.1.2.3 linecode=3_3 length=0.05456 units=km
New Line.SMT_16667 phases=1 bus1=12171.3 bus2= 610341.3 linecode=1_1 length=0.22996 units=km
New Line.SMT_16668 phases=1 bus1=610341.3 bus2= 610351.3 linecode=1_1 length=0.09262 units=km
New Line.SMT_16669 phases=1 bus1=269921.3 bus2= 610371.3 linecode=1_1 length=0.04438 units=km
New Line.SMT_16703 phases=3 bus1=108421.1.2.3 bus2= 607711.1.2.3 linecode=10_3 length=0.02293 units=km
New Line.SMT_16709 phases=3 bus1=541541.1.2.3 bus2= 541551.1.2.3 linecode=10_3 length=0.15305 units=km
New Line.SMT_16721 phases=3 bus1=607711.1.2.3 bus2= 607721.1.2.3 linecode=10_3 length=0.02913 units=km
New Line.SMT_16722 phases=3 bus1=617421.1.2.3 bus2= 541561.1.2.3 linecode=10_3 length=0.09003 units=km
New Line.SMT_16723 phases=3 bus1=541561.1.2.3 bus2= 541571.1.2.3 linecode=10_3 length=0.06329 units=km
New Line.SMT_16728 phases=3 bus1=211091.1.2.3 bus2= 211101.1.2.3 linecode=10_3 length=0.11102 units=km
New Line.SMT_16761 phases=3 bus1=541531.1.2.3 bus2= 781061.1.2.3 linecode=10_3 length=0.00214 units=km
New Line.SMT_16774 phases=3 bus1=345411.1.2.3 bus2= 522441.1.2.3 linecode=10_3 length=0.02864 units=km
New Line.SMT_16806 phases=3 bus1=607721.1.2.3 bus2= 607731.1.2.3 linecode=10_3 length=0.02986 units=km
New Line.SMT_16812 phases=3 bus1=541571.1.2.3 bus2= 628631.1.2.3 linecode=10_3 length=0.0103 units=km
New Line.SMT_16815 phases=1 bus1=305721.3 bus2= 472921.3 linecode=34_1 length=0.38364 units=km
New Line.SMT_16818 phases=3 bus1=607791.1.2.3 bus2= 112121.1.2.3 linecode=10_3 length=0.11868 units=km
New Line.SMT_1684 phases=3 bus1=123041.1.2.3 bus2= 123051.1.2.3 linecode=13_3 length=0.11683 units=km
New Line.SMT_16853 phases=3 bus1=286791.1.2.3 bus2= 621351.1.2.3 linecode=10_3 length=0.0025 units=km
New Line.SMT_16854 phases=3 bus1=25CF834.1.2.3 bus2= 363851.1.2.3 linecode=10_3 length=0.04406 units=km
New Line.SMT_16859 phases=1 bus1=493901.3 bus2= 472931.3 linecode=34_1 length=0.08139 units=km
New Line.SMT_1687 phases=3 bus1=129631.1.2.3 bus2= 129641.1.2.3 linecode=11_3 length=0.07931 units=km
New Line.SMT_16871 phases=3 bus1=332181.1.2.3 bus2= 630781.1.2.3 linecode=28_3 length=0.005 units=km
New Line.SMT_16872 phases=3 bus1=171621.1.2.3 bus2= 171631.1.2.3 linecode=10_3 length=0.04031 units=km
New Line.SMT_16877 phases=1 bus1=76151.3 bus2= 620151.3 linecode=1_1 length=0.13657 units=km
New Line.SMT_16903 phases=1 bus1=235821.2 bus2= 584291.2 linecode=1_1 length=0.49898 units=km
New Line.SMT_16904 phases=1 bus1=584291.2 bus2= 584301.2 linecode=1_1 length=0.13547 units=km
New Line.SMT_16906 phases=1 bus1=113321.3 bus2= 587161.3 linecode=27_1 length=0.00204 units=km
New Line.SMT_1693 phases=1 bus1=677121.2 bus2= 112771.2 linecode=1_1 length=0.03905 units=km
New Line.SMT_16939 phases=1 bus1=110321.1 bus2= 110311.1 linecode=1_1 length=0.10508 units=km
New Line.SMT_16940 phases=1 bus1=110311.1 bus2= 110281.1 linecode=1_1 length=0.12906 units=km
New Line.SMT_16965 phases=1 bus1=472921.3 bus2= 113461.3 linecode=34_1 length=0.14534 units=km
New Line.SMT_1698 phases=1 bus1=29911.3 bus2= 29921.3 linecode=1_1 length=0.16038 units=km
New Line.SMT_17011 phases=1 bus1=584301.2 bus2= 584311.2 linecode=1_1 length=0.09136 units=km
New Line.SMT_17012 phases=1 bus1=584311.2 bus2= 584331.2 linecode=1_1 length=0.09409 units=km
New Line.SMT_17016 phases=3 bus1=332231.1.2.3 bus2= 630751.1.2.3 linecode=28_3 length=0.01654 units=km
New Line.SMT_17017 phases=3 bus1=25CF827.1.2.3 bus2= 171711.1.2.3 linecode=10_3 length=0.03266 units=km
New Line.SMT_17023 phases=3 bus1=199171.1.2.3 bus2= 611101.1.2.3 linecode=10_3 length=0.03722 units=km
New Line.SMT_17029 phases=3 bus1=630751.1.2.3 bus2= 163891.1.2.3 linecode=10_3 length=0.00947 units=km
New Line.SMT_17040 phases=3 bus1=611101.1.2.3 bus2= 611111.1.2.3 linecode=10_3 length=0.03225 units=km
New Line.SMT_17041 phases=3 bus1=611111.1.2.3 bus2= 611121.1.2.3 linecode=10_3 length=0.03448 units=km
New Line.SMT_1705 phases=1 bus1=586431.3 bus2= 493901.3 linecode=34_1 length=0.13701 units=km
New Line.SMT_17057 phases=3 bus1=628661.1.2.3 bus2= 91081.1.2.3 linecode=11_3 length=0.02702 units=km
New Line.SMT_17061 phases=3 bus1=129651.1.2.3 bus2= 771861.1.2.3 linecode=10_3 length=0.08512 units=km
New Line.SMT_17070 phases=3 bus1=607771.1.2.3 bus2= 607781.1.2.3 linecode=10_3 length=0.031 units=km
New Line.SMT_17072 phases=3 bus1=349231.1.2.3 bus2= 627201.1.2.3 linecode=10_3 length=0.04754 units=km
New Line.SMT_17086 phases=3 bus1=744691.1.2.3 bus2= 542421.1.2.3 linecode=3_3 length=0.03048 units=km
New Line.SMT_17108 phases=3 bus1=351621.1.2.3 bus2= 324451.1.2.3 linecode=10_3 length=0.00086 units=km
New Line.SMT_1711 phases=3 bus1=362121.1.2.3 bus2= 362131.1.2.3 linecode=10_3 length=0.05763 units=km
New Line.SMT_1712 phases=3 bus1=188071.1.2.3 bus2= 112231.1.2.3 linecode=28_3 length=0.03202 units=km
New Line.SMT_17149 phases=3 bus1=611121.1.2.3 bus2= 611131.1.2.3 linecode=10_3 length=0.04565 units=km
New Line.SMT_1715 phases=3 bus1=130721.1.2.3 bus2= 130711.1.2.3 linecode=11_3 length=0.05201 units=km
New Line.SMT_17154 phases=3 bus1=163891.1.2.3 bus2= 630761.1.2.3 linecode=10_3 length=0.00498 units=km
New Line.SMT_17170 phases=3 bus1=199161.1.2.3 bus2= 630631.1.2.3 linecode=10_3 length=0.05725 units=km
New Line.SMT_1719 phases=3 bus1=695901.1.2.3 bus2= 306891.1.2.3 linecode=3_3 length=0.04301 units=km
New Line.SMT_17211 phases=1 bus1=477221.3 bus2= 477231.3 linecode=1_1 length=0.11924 units=km
New Line.SMT_1722 phases=3 bus1=274731.1.2.3 bus2= 108661.1.2.3 linecode=28_3 length=0.03833 units=km
New Line.SMT_17235 phases=3 bus1=363861.1.2.3 bus2= 363871.1.2.3 linecode=10_3 length=0.04159 units=km
New Line.SMT_17276 phases=1 bus1=76171.3 bus2= 628681.3 linecode=1_1 length=0.15379 units=km
New Line.SMT_17277 phases=1 bus1=76021.3 bus2= 628691.3 linecode=1_1 length=0.10749 units=km
New Line.SMT_17291 phases=1 bus1=628691.3 bus2= 628701.3 linecode=1_1 length=0.06845 units=km
New Line.SMT_1733 phases=3 bus1=292631.1.2.3 bus2= 292621.1.2.3 linecode=28_3 length=0.09974 units=km
New Line.SMT_1735 phases=1 bus1=79351.3 bus2= 79371.3 linecode=1_1 length=0.1817 units=km
New Line.SMT_1737 phases=1 bus1=128181.1 bus2= 128191.1 linecode=1_1 length=0.09626 units=km
New Line.SMT_17387 phases=3 bus1=522441.1.2.3 bus2= 522481.1.2.3 linecode=10_3 length=0.00498 units=km
New Line.SMT_17408 phases=3 bus1=1CF405.1.2.3 bus2= 629001.1.2.3 linecode=2_3 length=0.00166 units=km
New Line.SMT_17428 phases=1 bus1=379111.2 bus2= 612941.2 linecode=1_1 length=0.27631 units=km
New Line.SMT_17443 phases=1 bus1=292641.3 bus2= 67141.3 linecode=1_1 length=0.00422 units=km
New Line.SMT_17454 phases=1 bus1=595971.3 bus2= 561251.3 linecode=27_1 length=0.08184 units=km
New Line.SMT_17455 phases=1 bus1=1CF670.3 bus2= 595971.3 linecode=27_1 length=0.16909 units=km
New Line.SMT_17490 phases=3 bus1=363851.1.2.3 bus2= 363861.1.2.3 linecode=10_3 length=0.04428 units=km
New Line.SMT_17500 phases=1 bus1=134921.3 bus2= 477221.3 linecode=1_1 length=0.07908 units=km
New Line.SMT_17509 phases=3 bus1=629001.1.2.3 bus2= 295381.1.2.3 linecode=10_3 length=0.13141 units=km
New Line.SMT_17516 phases=3 bus1=188091.1.2.3 bus2= 199161.1.2.3 linecode=10_3 length=0.05968 units=km
New Line.SMT_17580 phases=3 bus1=25CS846.1.2.3 bus2= 171621.1.2.3 linecode=10_3 length=0.02647 units=km
New Line.SMT_1760 phases=1 bus1=201251.2 bus2= 249311.2 linecode=1_1 length=0.10242 units=km
New Line.SMT_17619 phases=1 bus1=187281.1 bus2= 599901.1 linecode=1_1 length=0.1383 units=km
New Line.SMT_17620 phases=1 bus1=599901.1 bus2= 640081.1 linecode=1_1 length=0.14735 units=km
New Line.SMT_17645 phases=1 bus1=76041.3 bus2= 76061.3 linecode=1_1 length=0.04965 units=km
New Line.SMT_17646 phases=1 bus1=76061.3 bus2= 238041.3 linecode=1_1 length=0.13223 units=km
New Line.SMT_17647 phases=1 bus1=238041.3 bus2= 76071.3 linecode=1_1 length=0.12701 units=km
New Line.SMT_17648 phases=3 bus1=1FR713.1.2.3 bus2= 641321.1.2.3 linecode=10_3 length=0.07473 units=km
New Line.SMT_17649 phases=3 bus1=641331.1.2.3 bus2= 641341.1.2.3 linecode=10_3 length=0.08826 units=km
New Line.SMT_17650 phases=3 bus1=641341.1.2.3 bus2= 641351.1.2.3 linecode=10_3 length=0.11625 units=km
New Line.SMT_17651 phases=3 bus1=641351.1.2.3 bus2= 641361.1.2.3 linecode=10_3 length=0.09473 units=km
New Line.SMT_17652 phases=3 bus1=641371.1.2.3 bus2= 641381.1.2.3 linecode=10_3 length=0.04802 units=km
New Line.SMT_17653 phases=3 bus1=641381.1.2.3 bus2= 641391.1.2.3 linecode=10_3 length=0.09276 units=km
New Line.SMT_17654 phases=3 bus1=641401.1.2.3 bus2= 641411.1.2.3 linecode=10_3 length=0.10002 units=km
New Line.SMT_17655 phases=1 bus1=641411.3 bus2= 295111.3 linecode=1_1 length=0.0495 units=km
New Line.SMT_17656 phases=3 bus1=641481.1.2.3 bus2= 641491.1.2.3 linecode=10_3 length=0.07824 units=km
New Line.SMT_17657 phases=3 bus1=641471.1.2.3 bus2= 641481.1.2.3 linecode=10_3 length=0.06573 units=km
New Line.SMT_17680 phases=3 bus1=641491.1.2.3 bus2= 641441.1.2.3 linecode=10_3 length=0.07728 units=km
New Line.SMT_17681 phases=3 bus1=641461.1.2.3 bus2= 641451.1.2.3 linecode=10_3 length=0.08923 units=km
New Line.SMT_17682 phases=3 bus1=641431.1.2.3 bus2= 269931.1.2.3 linecode=10_3 length=0.08262 units=km
New Line.SMT_17683 phases=1 bus1=1CS1006.2 bus2= 641521.2 linecode=1_1 length=0.02694 units=km
New Line.SMT_17685 phases=3 bus1=640401.1.2.3 bus2= 641551.1.2.3 linecode=10_3 length=0.00274 units=km
New Line.SMT_17746 phases=3 bus1=25CF1188.1.2.3 bus2= 431851.1.2.3 linecode=10_3 length=0.02483 units=km
New Line.SMT_17749 phases=3 bus1=413161.1.2.3 bus2= 476391.1.2.3 linecode=10_3 length=0.01581 units=km
New Line.SMT_17891 phases=1 bus1=1CF659.3 bus2= 640661.3 linecode=1_1 length=0.35788 units=km
New Line.SMT_17902 phases=3 bus1=25CF1111.1.2.3 bus2= 641111.1.2.3 linecode=10_3 length=0.08057 units=km
New Line.SMT_17903 phases=3 bus1=641111.1.2.3 bus2= 641121.1.2.3 linecode=10_3 length=0.10084 units=km
New Line.SMT_17904 phases=3 bus1=641121.1.2.3 bus2= 641081.1.2.3 linecode=10_3 length=0.10424 units=km
New Line.SMT_17905 phases=3 bus1=641081.1.2.3 bus2= 641101.1.2.3 linecode=10_3 length=0.10791 units=km
New Line.SMT_17906 phases=3 bus1=641101.1.2.3 bus2= 641131.1.2.3 linecode=10_3 length=0.20342 units=km
New Line.SMT_1792 phases=1 bus1=129231.2 bus2= 129241.2 linecode=1_1 length=0.12323 units=km
New Line.SMT_17943 phases=1 bus1=201301.2 bus2= 201331.2 linecode=1_1 length=0.14583 units=km
New Line.SMT_17944 phases=1 bus1=201341.2 bus2= 201351.2 linecode=1_1 length=0.12602 units=km
New Line.SMT_17945 phases=1 bus1=201351.2 bus2= 201361.2 linecode=1_1 length=0.1063 units=km
New Line.SMT_17946 phases=1 bus1=201361.2 bus2= 201371.2 linecode=1_1 length=0.14835 units=km
New Line.SMT_1795 phases=3 bus1=123051.1.2.3 bus2= 123061.1.2.3 linecode=13_3 length=0.08742 units=km
New Line.SMT_18005 phases=3 bus1=117511.1.2.3 bus2= 652871.1.2.3 linecode=10_3 length=0.00482 units=km
New Line.SMT_18016 phases=3 bus1=104691.1.2.3 bus2= 104701.1.2.3 linecode=10_3 length=0.0487 units=km
New Line.SMT_18017 phases=3 bus1=104641.1.2.3 bus2= 104691.1.2.3 linecode=10_3 length=0.03008 units=km
New Line.SMT_1802 phases=1 bus1=76591.2 bus2= 76601.2 linecode=1_1 length=0.10717 units=km
New Line.SMT_1805 phases=3 bus1=171721.1.2.3 bus2= 304751.1.2.3 linecode=10_3 length=0.02921 units=km
New Line.SMT_1807 phases=3 bus1=187181.1.2.3 bus2= 187191.1.2.3 linecode=10_3 length=0.13019 units=km
New Line.SMT_18094 phases=3 bus1=647061.1.2.3 bus2= 94671.1.2.3 linecode=10_3 length=0.05464 units=km
New Line.SMT_18095 phases=3 bus1=379101.1.2.3 bus2= 145891.1.2.3 linecode=10_3 length=0.01789 units=km
New Line.SMT_1812 phases=3 bus1=91091.1.2.3 bus2= 91101.1.2.3 linecode=11_3 length=0.20412 units=km
New Line.SMT_18136 phases=1 bus1=93691.3 bus2= 93701.3 linecode=1_1 length=0.06248 units=km
New Line.SMT_18137 phases=1 bus1=93701.3 bus2= 93711.3 linecode=1_1 length=0.08683 units=km
New Line.SMT_18138 phases=1 bus1=93711.3 bus2= 648281.3 linecode=1_1 length=0.27755 units=km
New Line.SMT_18139 phases=1 bus1=648281.3 bus2= 648291.3 linecode=1_1 length=0.05903 units=km
New Line.SMT_18140 phases=1 bus1=648291.3 bus2= 648301.3 linecode=1_1 length=0.08062 units=km
New Line.SMT_18141 phases=1 bus1=648301.3 bus2= 648311.3 linecode=1_1 length=0.08144 units=km
New Line.SMT_18142 phases=1 bus1=201371.2 bus2= 650631.2 linecode=1_1 length=0.09424 units=km
New Line.SMT_1817 phases=3 bus1=117501.1.2.3 bus2= 527291.1.2.3 linecode=11_3 length=0.05632 units=km
New Line.SMT_1818 phases=3 bus1=130711.1.2.3 bus2= 650891.1.2.3 linecode=11_3 length=0.08828 units=km
New Line.SMT_1820 phases=3 bus1=274921.1.2.3 bus2= 274881.1.2.3 linecode=28_3 length=0.23455 units=km
New Line.SMT_18232 phases=1 bus1=79251.3 bus2= 79271.3 linecode=1_1 length=0.13231 units=km
New Line.SMT_18233 phases=1 bus1=79271.3 bus2= 79281.3 linecode=1_1 length=0.13124 units=km
New Line.SMT_18234 phases=1 bus1=79281.3 bus2= 79291.3 linecode=1_1 length=0.06464 units=km
New Line.SMT_18235 phases=1 bus1=79291.3 bus2= 345271.3 linecode=1_1 length=0.21855 units=km
New Line.SMT_1825 phases=3 bus1=104151.1.2.3 bus2= 527301.1.2.3 linecode=11_3 length=0.05492 units=km
New Line.SMT_1826 phases=3 bus1=527301.1.2.3 bus2= 527311.1.2.3 linecode=11_3 length=0.06631 units=km
New Line.SMT_18265 phases=3 bus1=274881.1.2.3 bus2= 274851.1.2.3 linecode=28_3 length=0.05758 units=km
New Line.SMT_18266 phases=3 bus1=641411.1.2.3 bus2= 641421.1.2.3 linecode=10_3 length=0.11498 units=km
New Line.SMT_1827 phases=1 bus1=128171.1 bus2= 128181.1 linecode=1_1 length=0.13583 units=km
New Line.SMT_18304 phases=1 bus1=112801.2 bus2= 112831.2 linecode=1_1 length=0.09278 units=km
New Line.SMT_18305 phases=3 bus1=216381.1.2.3 bus2= 192671.1.2.3 linecode=10_3 length=0.04 units=km
New Line.SMT_18306 phases=3 bus1=25CF1460.1.2.3 bus2= 93771.1.2.3 linecode=11_3 length=0.05343 units=km
New Line.SMT_18308 phases=3 bus1=128651.1.2.3 bus2= 290241.1.2.3 linecode=10_3 length=0.11427 units=km
New Line.SMT_18309 phases=3 bus1=104511.1.2.3 bus2= 104521.1.2.3 linecode=10_3 length=0.10651 units=km
New Line.SMT_18310 phases=3 bus1=104551.1.2.3 bus2= 104561.1.2.3 linecode=10_3 length=0.08587 units=km
New Line.SMT_18311 phases=3 bus1=104571.1.2.3 bus2= 123041.1.2.3 linecode=13_3 length=0.06263 units=km
New Line.SMT_18312 phases=3 bus1=168061.1.2.3 bus2= 168071.1.2.3 linecode=10_3 length=0.11838 units=km
New Line.SMT_18313 phases=3 bus1=168071.1.2.3 bus2= 168091.1.2.3 linecode=10_3 length=0.11364 units=km
New Line.SMT_18314 phases=3 bus1=203831.1.2.3 bus2= 203841.1.2.3 linecode=10_3 length=0.02886 units=km
New Line.SMT_18315 phases=3 bus1=332261.1.2.3 bus2= 332311.1.2.3 linecode=28_3 length=0.04795 units=km
New Line.SMT_18317 phases=3 bus1=439481.1.2.3 bus2= 351561.1.2.3 linecode=28_3 length=0.02073 units=km
New Line.SMT_18351 phases=3 bus1=92531.1.2.3 bus2= 211081.1.2.3 linecode=10_3 length=0.01903 units=km
New Line.SMT_18353 phases=1 bus1=347681.3 bus2= 347691.3 linecode=27_1 length=0.10284 units=km
New Line.SMT_18359 phases=3 bus1=369231.1.2.3 bus2= 365061.1.2.3 linecode=10_3 length=0.02983 units=km
New Line.SMT_18360 phases=3 bus1=306711.1.2.3 bus2= 306721.1.2.3 linecode=10_3 length=0.04686 units=km
New Line.SMT_18361 phases=3 bus1=199051.1.2.3 bus2= 199041.1.2.3 linecode=10_3 length=0.03905 units=km
New Line.SMT_18362 phases=3 bus1=220491.1.2.3 bus2= 171641.1.2.3 linecode=10_3 length=0.02048 units=km
New Line.SMT_18363 phases=3 bus1=607801.1.2.3 bus2= 332961.1.2.3 linecode=10_3 length=0.02802 units=km
New Line.SMT_18364 phases=3 bus1=171661.1.2.3 bus2= 171611.1.2.3 linecode=28_3 length=0.02907 units=km
New Line.SMT_18365 phases=3 bus1=332221.1.2.3 bus2= 332231.1.2.3 linecode=28_3 length=0.03379 units=km
New Line.SMT_18366 phases=3 bus1=286851.1.2.3 bus2= 286841.1.2.3 linecode=28_3 length=0.12027 units=km
New Line.SMT_18367 phases=3 bus1=609921.1.2.3 bus2= 12701.1.2.3 linecode=3_3 length=0.02828 units=km
New Line.SMT_18368 phases=3 bus1=292611.1.2.3 bus2= 292601.1.2.3 linecode=28_3 length=0.09552 units=km
New Line.SMT_1838 phases=3 bus1=292521.1.2.3 bus2= 292541.1.2.3 linecode=14_3 length=0.00186 units=km
New Line.SMT_1839 phases=1 bus1=76601.2 bus2= 76611.2 linecode=1_1 length=0.28562 units=km
New Line.SMT_18437 phases=1 bus1=76671.2 bus2= 76681.2 linecode=1_1 length=0.08982 units=km
New Line.SMT_18438 phases=1 bus1=295711.3 bus2= 636651.3 linecode=1_1 length=0.3372 units=km
New Line.SMT_18439 phases=1 bus1=93921.2 bus2= 76521.2 linecode=1_1 length=0.08809 units=km
New Line.SMT_18440 phases=1 bus1=152171.2 bus2= 152181.2 linecode=1_1 length=0.07826 units=km
New Line.SMT_18441 phases=1 bus1=152191.2 bus2= 152201.2 linecode=1_1 length=0.0908 units=km
New Line.SMT_18442 phases=1 bus1=133381.3 bus2= 133391.3 linecode=1_1 length=0.20663 units=km
New Line.SMT_18443 phases=3 bus1=134941.1.2.3 bus2= 134951.1.2.3 linecode=10_3 length=0.06551 units=km
New Line.SMT_18444 phases=1 bus1=112781.2 bus2= 112801.2 linecode=1_1 length=0.08322 units=km
New Line.SMT_18445 phases=1 bus1=133361.3 bus2= 133371.3 linecode=1_1 length=0.10308 units=km
New Line.SMT_18447 phases=3 bus1=145711.1.2.3 bus2= 145721.1.2.3 linecode=10_3 length=0.03441 units=km
New Line.SMT_18448 phases=3 bus1=132531.1.2.3 bus2= 132541.1.2.3 linecode=10_3 length=0.061 units=km
New Line.SMT_18449 phases=3 bus1=199301.1.2.3 bus2= 145711.1.2.3 linecode=10_3 length=0.02625 units=km
New Line.SMT_18450 phases=3 bus1=112231.1.2.3 bus2= 367111.1.2.3 linecode=28_3 length=0.05374 units=km
New Line.SMT_18452 phases=3 bus1=367111.1.2.3 bus2= 117481.1.2.3 linecode=28_3 length=0.00877 units=km
New Line.SMT_18483 phases=3 bus1=104171.1.2.3 bus2= 104181.1.2.3 linecode=11_3 length=0.05507 units=km
New Line.SMT_18500 phases=3 bus1=345351.1.2.3 bus2= 188071.1.2.3 linecode=28_3 length=0.0286 units=km
New Line.SMT_18501 phases=3 bus1=188081.1.2.3 bus2= 345431.1.2.3 linecode=28_3 length=0.001 units=km
New Line.SMT_18503 phases=3 bus1=199241.1.2.3 bus2= 163901.1.2.3 linecode=10_3 length=0.02352 units=km
New Line.SMT_18505 phases=3 bus1=163901.1.2.3 bus2= 145701.1.2.3 linecode=10_3 length=0.01633 units=km
New Line.SMT_18506 phases=3 bus1=274001.1.2.3 bus2= 273991.1.2.3 linecode=28_3 length=0.10891 units=km
New Line.SMT_18508 phases=3 bus1=273811.1.2.3 bus2= 273801.1.2.3 linecode=28_3 length=0.08812 units=km
New Line.SMT_18509 phases=3 bus1=273831.1.2.3 bus2= 273821.1.2.3 linecode=28_3 length=0.09818 units=km
New Line.SMT_18525 phases=3 bus1=26091.1.2.3 bus2= 274821.1.2.3 linecode=28_3 length=0.11607 units=km
New Line.SMT_18526 phases=2 bus1=78711.3.1 bus2= 78721.3.1 linecode=18_2 length=0.08161 units=km
New Line.SMT_18535 phases=3 bus1=129781.1.2.3 bus2= 130481.1.2.3 linecode=11_3 length=0.158 units=km
New Line.SMT_18537 phases=3 bus1=563361.1.2.3 bus2= 130661.1.2.3 linecode=11_3 length=0.07355 units=km
New Line.SMT_18554 phases=3 bus1=274011.1.2.3 bus2= 273901.1.2.3 linecode=28_3 length=0.12406 units=km
New Line.SMT_18555 phases=3 bus1=304751.1.2.3 bus2= 306761.1.2.3 linecode=10_3 length=0.00889 units=km
New Line.SMT_18556 phases=3 bus1=171711.1.2.3 bus2= 171721.1.2.3 linecode=10_3 length=0.02163 units=km
New Line.SMT_18557 phases=3 bus1=171641.1.2.3 bus2= 343431.1.2.3 linecode=10_3 length=0.00283 units=km
New Line.SMT_18558 phases=3 bus1=273911.1.2.3 bus2= 274011.1.2.3 linecode=28_3 length=0.09159 units=km
New Line.SMT_18559 phases=3 bus1=345361.1.2.3 bus2= 741411.1.2.3 linecode=28_3 length=0.03105 units=km
New Line.SMT_18560 phases=3 bus1=273921.1.2.3 bus2= 273911.1.2.3 linecode=28_3 length=0.07703 units=km
New Line.SMT_18562 phases=3 bus1=12291.1.2.3 bus2= 12301.1.2.3 linecode=10_3 length=0.12207 units=km
New Line.SMT_18563 phases=3 bus1=198331.1.2.3 bus2= 198321.1.2.3 linecode=10_3 length=0.03441 units=km
New Line.SMT_18580 phases=3 bus1=130501.1.2.3 bus2= 33521.1.2.3 linecode=11_3 length=0.067 units=km
New Line.SMT_18581 phases=1 bus1=112351.3 bus2= 378061.3 linecode=1_1 length=0.1966 units=km
New Line.SMT_18582 phases=3 bus1=641131.1.2.3 bus2= 641141.1.2.3 linecode=10_3 length=0.05636 units=km
New Line.SMT_18583 phases=3 bus1=665531.1.2.3 bus2= 117371.1.2.3 linecode=11_3 length=0.22506 units=km
New Line.SMT_18584 phases=3 bus1=652871.1.2.3 bus2= 368481.1.2.3 linecode=11_3 length=0.07249 units=km
New Line.SMT_18585 phases=1 bus1=113351.3 bus2= 113371.3 linecode=1_1 length=0.28563 units=km
New Line.SMT_18603 phases=3 bus1=211891.1.2.3 bus2= 211881.1.2.3 linecode=28_3 length=0.04046 units=km
New Line.SMT_18605 phases=3 bus1=343131.1.2.3 bus2= 110321.1.2.3 linecode=10_3 length=0.04342 units=km
New Line.SMT_18606 phases=3 bus1=198301.1.2.3 bus2= 198291.1.2.3 linecode=10_3 length=0.03342 units=km
New Line.SMT_18607 phases=3 bus1=306751.1.2.3 bus2= 306771.1.2.3 linecode=10_3 length=0.0328 units=km
New Line.SMT_18609 phases=3 bus1=110341.1.2.3 bus2= 96671.1.2.3 linecode=10_3 length=0.115 units=km
New Line.SMT_18610 phases=3 bus1=220071.1.2.3 bus2= 211921.1.2.3 linecode=28_3 length=0.03523 units=km
New Line.SMT_18611 phases=3 bus1=286771.1.2.3 bus2= 351631.1.2.3 linecode=28_3 length=0.10422 units=km
New Line.SMT_18613 phases=3 bus1=574371.1.2.3 bus2= 198191.1.2.3 linecode=10_3 length=0.01682 units=km
New Line.SMT_18615 phases=3 bus1=347601.1.2.3 bus2= 347611.1.2.3 linecode=10_3 length=0.10469 units=km
New Line.SMT_18659 phases=3 bus1=363871.1.2.3 bus2= 692541.1.2.3 linecode=10_3 length=0.03764 units=km
New Line.SMT_18660 phases=3 bus1=198151.1.2.3 bus2= 198141.1.2.3 linecode=10_3 length=0.0328 units=km
New Line.SMT_18661 phases=3 bus1=332441.1.2.3 bus2= 332431.1.2.3 linecode=28_3 length=0.08081 units=km
New Line.SMT_18662 phases=3 bus1=77291.1.2.3 bus2= 364731.1.2.3 linecode=28_3 length=0.09884 units=km
New Line.SMT_18663 phases=3 bus1=50791.1.2.3 bus2= 50721.1.2.3 linecode=10_3 length=0.03712 units=km
New Line.SMT_18664 phases=3 bus1=1CF416.1.2.3 bus2= 550261.1.2.3 linecode=14_3 length=0.1626 units=km
New Line.SMT_18666 phases=3 bus1=550261.1.2.3 bus2= 550271.1.2.3 linecode=14_3 length=0.10102 units=km
New Line.SMT_18667 phases=3 bus1=550271.1.2.3 bus2= 550281.1.2.3 linecode=14_3 length=0.11714 units=km