New Transformer.TRF_11_130A phases=3 windings=2 buses=[49521.1.2.3 ET11_130.1.2.3.4] conns=[Delta Wye] kvs=[23.1 0.38] kvas=[15 15] %loadloss=2.5 %noloadloss=0.633333
New Reactor.TRF_11_130A_R phases=1 bus1=ET11_130.4 R=15 X=0 basefreq=60
New Transformer.TRF_11_131A phases=1 windings=3 buses=[21941.3.1 ET11_131.1.4 ET11_131.4.2] conns=[Delta Wye Wye] kvs=[23.1 0.22 0.22] kvas=[10 10 10] %loadloss=1.15 %noloadloss=0.4
New Reactor.TRF_11_131A_R phases=1 bus1=ET11_131.4 R=15 X=0 basefreq=60
New Transformer.TRF_11_132A phases=1 windings=3 buses=[MRT_42481TRF_11_132A.1 ET11_132.1.4 ET11_132.4.2] conns=[Wye Wye Wye] kvs=[13.3367912182804 0.22 0.22] kvas=[10 10 10] %loadloss=1.95 %noloadloss=0.5
New Linecode.LC_MRT_TRF_11_132A_1 nphases=1 basefreq=60 r1=15000 x1=0 units=km normamps=0
New Linecode.LC_MRT_TRF_11_132A_2 nphases=2 basefreq=60 r1=15000 x1=0 units=km normamps=0
New Linecode.LC_MRT_TRF_11_132A_3 nphases=3 basefreq=60 r1=15000 x1=0 units=km normamps=0
New Linecode.LC_MRT_TRF_11_132A_4 nphases=4 basefreq=60 r1=15000 x1=0 units=km normamps=0
New Line.Resist_MTR_TRF_11_132A phases=1 bus1=42481.1 bus2= MRT_42481TRF_11_132A.1 linecode=LC_MRT_TRF_11_132A_1 length=0.001 units=km
New Reactor.TRF_11_132A_R phases=1 bus1=ET11_132.4 R=15 X=0 basefreq=60
New Transformer.TRF_11_133A phases=1 windings=3 buses=[62311.3.1 ET11_133.1.4 ET11_133.4.2] conns=[Delta Wye Wye] kvs=[23.1 0.22 0.22] kvas=[10 10 10] %loadloss=1.15 %noloadloss=0.4
New Reactor.TRF_11_133A_R phases=1 bus1=ET11_133.4 R=15 X=0 basefreq=60
New Transformer.TRF_11_2597A phases=1 windings=3 buses=[MRT_48681TRF_11_2597A.3 ET11_2597.1.4 ET11_2597.4.2] conns=[Wye Wye Wye] kvs=[13.3367912182804 0.22 0.22] kvas=[10 10 10] %loadloss=1.95 %noloadloss=0.5
New Linecode.LC_MRT_TRF_11_2597A_1 nphases=1 basefreq=60 r1=15000 x1=0 units=km normamps=0
New Linecode.LC_MRT_TRF_11_2597A_2 nphases=2 basefreq=60 r1=15000 x1=0 units=km normamps=0
New Linecode.LC_MRT_TRF_11_2597A_3 nphases=3 basefreq=60 r1=15000 x1=0 units=km normamps=0
New Linecode.LC_MRT_TRF_11_2597A_4 nphases=4 basefreq=60 r1=15000 x1=0 units=km normamps=0
New Line.Resist_MTR_TRF_11_2597A phases=1 bus1=48681.3 bus2= MRT_48681TRF_11_2597A.3 linecode=LC_MRT_TRF_11_2597A_1 length=0.001 units=km
New Reactor.TRF_11_2597A_R phases=1 bus1=ET11_2597.4 R=15 X=0 basefreq=60
New Transformer.TRF_11_305A phases=3 windings=2 buses=[56861.1.2.3 ET11_305.1.2.3.4] conns=[Delta Wye] kvs=[23.1 0.38] kvas=[45 45] %loadloss=1.866667 %noloadloss=0.477777
New Reactor.TRF_11_305A_R phases=1 bus1=ET11_305.4 R=15 X=0 basefreq=60
New Transformer.TRF_11_3987A phases=1 windings=2 buses=[MRT_640981TRF_11_3987A.3 ET11_3987.1.4] conns=[Wye Wye] kvs=[13.3367912182804 0.22] kvas=[5 5] %loadloss=2.1 %noloadloss=0.7
New Linecode.LC_MRT_TRF_11_3987A_1 nphases=1 basefreq=60 r1=15000 x1=0 units=km normamps=0
New Linecode.LC_MRT_TRF_11_3987A_2 nphases=2 basefreq=60 r1=15000 x1=0 units=km normamps=0
New Linecode.LC_MRT_TRF_11_3987A_3 nphases=3 basefreq=60 r1=15000 x1=0 units=km normamps=0
New Linecode.LC_MRT_TRF_11_3987A_4 nphases=4 basefreq=60 r1=15000 x1=0 units=km normamps=0
New Line.Resist_MTR_TRF_11_3987A phases=1 bus1=640981.3 bus2= MRT_640981TRF_11_3987A.3 linecode=LC_MRT_TRF_11_3987A_1 length=0.001 units=km
New Reactor.TRF_11_3987A_R phases=1 bus1=ET11_3987.4 R=15 X=0 basefreq=60
New Transformer.TRF_11_4675A phases=3 windings=2 buses=[302191.1.2.3 ET11_4675.1.2.3.4] conns=[Delta Wye] kvs=[23.1 0.38] kvas=[150 150] %loadloss=1.393334 %noloadloss=0.346666
New Reactor.TRF_11_4675A_R phases=1 bus1=ET11_4675.4 R=15 X=0 basefreq=60
New Transformer.TRF_11_4785A phases=1 windings=3 buses=[MRT_722851TRF_11_4785A.3 ET11_4785.1.4 ET11_4785.4.2] conns=[Wye Wye Wye] kvs=[13.3367912182804 0.22 0.22] kvas=[10 10 10] %loadloss=1.95 %noloadloss=0.5
New Linecode.LC_MRT_TRF_11_4785A_1 nphases=1 basefreq=60 r1=15000 x1=0 units=km normamps=0
New Linecode.LC_MRT_TRF_11_4785A_2 nphases=2 basefreq=60 r1=15000 x1=0 units=km normamps=0
New Linecode.LC_MRT_TRF_11_4785A_3 nphases=3 basefreq=60 r1=15000 x1=0 units=km normamps=0
New Linecode.LC_MRT_TRF_11_4785A_4 nphases=4 basefreq=60 r1=15000 x1=0 units=km normamps=0
New Line.Resist_MTR_TRF_11_4785A phases=1 bus1=722851.3 bus2= MRT_722851TRF_11_4785A.3 linecode=LC_MRT_TRF_11_4785A_1 length=0.001 units=km
New Reactor.TRF_11_4785A_R phases=1 bus1=ET11_4785.4 R=15 X=0 basefreq=60
New Transformer.TRF_11_4955A phases=1 windings=3 buses=[MRT_21881TRF_11_4955A.1 ET11_4955.1.4 ET11_4955.4.2] conns=[Wye Wye Wye] kvs=[13.3367912182804 0.22 0.22] kvas=[15 15 15] %loadloss=1.766667 %noloadloss=0.433333
New Linecode.LC_MRT_TRF_11_4955A_1 nphases=1 basefreq=60 r1=15000 x1=0 units=km normamps=0
New Linecode.LC_MRT_TRF_11_4955A_2 nphases=2 basefreq=60 r1=15000 x1=0 units=km normamps=0
New Linecode.LC_MRT_TRF_11_4955A_3 nphases=3 basefreq=60 r1=15000 x1=0 units=km normamps=0
New Linecode.LC_MRT_TRF_11_4955A_4 nphases=4 basefreq=60 r1=15000 x1=0 units=km normamps=0
New Line.Resist_MTR_TRF_11_4955A phases=1 bus1=21881.1 bus2= MRT_21881TRF_11_4955A.1 linecode=LC_MRT_TRF_11_4955A_1 length=0.001 units=km
New Reactor.TRF_11_4955A_R phases=1 bus1=ET11_4955.4 R=15 X=0 basefreq=60
New Transformer.TRF_11_5652A phases=1 windings=3 buses=[MRT_755661TRF_11_5652A.3 ET11_5652.1.4 ET11_5652.4.2] conns=[Wye Wye Wye] kvs=[13.3367912182804 0.22 0.22] kvas=[15 15 15] %loadloss=1.766667 %noloadloss=0.433333
New Linecode.LC_MRT_TRF_11_5652A_1 nphases=1 basefreq=60 r1=15000 x1=0 units=km normamps=0
New Linecode.LC_MRT_TRF_11_5652A_2 nphases=2 basefreq=60 r1=15000 x1=0 units=km normamps=0
New Linecode.LC_MRT_TRF_11_5652A_3 nphases=3 basefreq=60 r1=15000 x1=0 units=km normamps=0
New Linecode.LC_MRT_TRF_11_5652A_4 nphases=4 basefreq=60 r1=15000 x1=0 units=km normamps=0
New Line.Resist_MTR_TRF_11_5652A phases=1 bus1=755661.3 bus2= MRT_755661TRF_11_5652A.3 linecode=LC_MRT_TRF_11_5652A_1 length=0.001 units=km
New Reactor.TRF_11_5652A_R phases=1 bus1=ET11_5652.4 R=15 X=0 basefreq=60
New Transformer.TRF_11_6443A phases=3 windings=2 buses=[815111.1.2.3 ET11_6443.1.2.3.4] conns=[Delta Wye] kvs=[23.1 0.38] kvas=[150 150] %loadloss=1.393334 %noloadloss=0.346666
New Reactor.TRF_11_6443A_R phases=1 bus1=ET11_6443.4 R=15 X=0 basefreq=60
New Transformer.TRF_11_6482A phases=3 windings=2 buses=[818611.1.2.3 ET11_6482.1.2.3.4] conns=[Delta Wye] kvs=[23.1 0.38] kvas=[45 45] %loadloss=1.866667 %noloadloss=0.477777
New Reactor.TRF_11_6482A_R phases=1 bus1=ET11_6482.4 R=15 X=0 basefreq=60
New Transformer.TRF_16_1095A phases=1 windings=3 buses=[36971.1.2 ET16_1095.1.4 ET16_1095.4.2] conns=[Delta Wye Wye] kvs=[23.1 0.22 0.22] kvas=[15 15 15] %loadloss=1.933333 %noloadloss=0.5
New Reactor.TRF_16_1095A_R phases=1 bus1=ET16_1095.4 R=15 X=0 basefreq=60
New Transformer.TRF_16_1140A phases=1 windings=3 buses=[MRT_13971TRF_16_1140A.2 ET16_1140.1.4 ET16_1140.4.2] conns=[Wye Wye Wye] kvs=[13.3367912182804 0.22 0.22] kvas=[10 10 10] %loadloss=1.95 %noloadloss=0.5
New Linecode.LC_MRT_TRF_16_1140A_1 nphases=1 basefreq=60 r1=15000 x1=0 units=km normamps=0
New Linecode.LC_MRT_TRF_16_1140A_2 nphases=2 basefreq=60 r1=15000 x1=0 units=km normamps=0
New Linecode.LC_MRT_TRF_16_1140A_3 nphases=3 basefreq=60 r1=15000 x1=0 units=km normamps=0
New Linecode.LC_MRT_TRF_16_1140A_4 nphases=4 basefreq=60 r1=15000 x1=0 units=km normamps=0
New Line.Resist_MTR_TRF_16_1140A phases=1 bus1=13971.2 bus2= MRT_13971TRF_16_1140A.2 linecode=LC_MRT_TRF_16_1140A_1 length=0.001 units=km
New Reactor.TRF_16_1140A_R phases=1 bus1=ET16_1140.4 R=15 X=0 basefreq=60
New Transformer.TRF_16_1141A phases=1 windings=3 buses=[MRT_17961TRF_16_1141A.3 ET16_1141.1.4 ET16_1141.4.2] conns=[Wye Wye Wye] kvs=[13.3367912182804 0.22 0.22] kvas=[15 15 15] %loadloss=1.766667 %noloadloss=0.433333
New Linecode.LC_MRT_TRF_16_1141A_1 nphases=1 basefreq=60 r1=15000 x1=0 units=km normamps=0
New Linecode.LC_MRT_TRF_16_1141A_2 nphases=2 basefreq=60 r1=15000 x1=0 units=km normamps=0
New Linecode.LC_MRT_TRF_16_1141A_3 nphases=3 basefreq=60 r1=15000 x1=0 units=km normamps=0
New Linecode.LC_MRT_TRF_16_1141A_4 nphases=4 basefreq=60 r1=15000 x1=0 units=km normamps=0
New Line.Resist_MTR_TRF_16_1141A phases=1 bus1=17961.3 bus2= MRT_17961TRF_16_1141A.3 linecode=LC_MRT_TRF_16_1141A_1 length=0.001 units=km
New Reactor.TRF_16_1141A_R phases=1 bus1=ET16_1141.4 R=15 X=0 basefreq=60
New Transformer.TRF_16_1142A phases=3 windings=2 buses=[659541.1.2.3 ET16_1142.1.2.3.4] conns=[Delta Wye] kvs=[23.1 0.38] kvas=[45 45] %loadloss=1.866667 %noloadloss=0.477777
New Reactor.TRF_16_1142A_R phases=1 bus1=ET16_1142.4 R=15 X=0 basefreq=60
New Transformer.TRF_16_1143A phases=3 windings=2 buses=[7341.1.2.3 ET16_1143.1.2.3.4] conns=[Delta Wye] kvs=[23.1 0.38] kvas=[30 30] %loadloss=2.1 %noloadloss=0.533333
New Reactor.TRF_16_1143A_R phases=1 bus1=ET16_1143.4 R=15 X=0 basefreq=60
New Transformer.TRF_16_1144A phases=1 windings=3 buses=[MRT_27781TRF_16_1144A.2 ET16_1144.1.4 ET16_1144.4.2] conns=[Wye Wye Wye] kvs=[13.3367912182804 0.22 0.22] kvas=[15 15 15] %loadloss=1.766667 %noloadloss=0.433333
New Linecode.LC_MRT_TRF_16_1144A_1 nphases=1 basefreq=60 r1=15000 x1=0 units=km normamps=0
New Linecode.LC_MRT_TRF_16_1144A_2 nphases=2 basefreq=60 r1=15000 x1=0 units=km normamps=0
New Linecode.LC_MRT_TRF_16_1144A_3 nphases=3 basefreq=60 r1=15000 x1=0 units=km normamps=0
New Linecode.LC_MRT_TRF_16_1144A_4 nphases=4 basefreq=60 r1=15000 x1=0 units=km normamps=0
New Line.Resist_MTR_TRF_16_1144A phases=1 bus1=27781.2 bus2= MRT_27781TRF_16_1144A.2 linecode=LC_MRT_TRF_16_1144A_1 length=0.001 units=km
New Reactor.TRF_16_1144A_R phases=1 bus1=ET16_1144.4 R=15 X=0 basefreq=60
New Transformer.TRF_16_1301A phases=1 windings=3 buses=[48361.3.1 ET16_1301.1.4 ET16_1301.4.2] conns=[Delta Wye Wye] kvs=[23.1 0.22 0.22] kvas=[10 10 10] %loadloss=1.15 %noloadloss=0.4
New Reactor.TRF_16_1301A_R phases=1 bus1=ET16_1301.4 R=15 X=0 basefreq=60
New Transformer.TRF_16_1585A phases=3 windings=2 buses=[3511.1.2.3 ET16_1585.1.2.3.4] conns=[Delta Wye] kvs=[23.1 0.38] kvas=[15 15] %loadloss=2.5 %noloadloss=0.633333
New Reactor.TRF_16_1585A_R phases=1 bus1=ET16_1585.4 R=15 X=0 basefreq=60
New Transformer.TRF_16_2139A phases=1 windings=3 buses=[MRT_48421TRF_16_2139A.1 ET16_2139.1.4 ET16_2139.4.2] conns=[Wye Wye Wye] kvs=[13.3367912182804 0.22 0.22] kvas=[25 25 25] %loadloss=1.56 %noloadloss=0.36
New Linecode.LC_MRT_TRF_16_2139A_1 nphases=1 basefreq=60 r1=15000 x1=0 units=km normamps=0
New Linecode.LC_MRT_TRF_16_2139A_2 nphases=2 basefreq=60 r1=15000 x1=0 units=km normamps=0
New Linecode.LC_MRT_TRF_16_2139A_3 nphases=3 basefreq=60 r1=15000 x1=0 units=km normamps=0
New Linecode.LC_MRT_TRF_16_2139A_4 nphases=4 basefreq=60 r1=15000 x1=0 units=km normamps=0
New Line.Resist_MTR_TRF_16_2139A phases=1 bus1=48421.1 bus2= MRT_48421TRF_16_2139A.1 linecode=LC_MRT_TRF_16_2139A_1 length=0.001 units=km
New Reactor.TRF_16_2139A_R phases=1 bus1=ET16_2139.4 R=15 X=0 basefreq=60
New Transformer.TRF_16_2195A phases=1 windings=3 buses=[MRT_337691TRF_16_2195A.1 ET16_2195.1.4 ET16_2195.4.2] conns=[Wye Wye Wye] kvs=[13.3367912182804 0.22 0.22] kvas=[15 15 15] %loadloss=1.766667 %noloadloss=0.433333
New Linecode.LC_MRT_TRF_16_2195A_1 nphases=1 basefreq=60 r1=15000 x1=0 units=km normamps=0
New Linecode.LC_MRT_TRF_16_2195A_2 nphases=2 basefreq=60 r1=15000 x1=0 units=km normamps=0
New Linecode.LC_MRT_TRF_16_2195A_3 nphases=3 basefreq=60 r1=15000 x1=0 units=km normamps=0
New Linecode.LC_MRT_TRF_16_2195A_4 nphases=4 basefreq=60 r1=15000 x1=0 units=km normamps=0
New Line.Resist_MTR_TRF_16_2195A phases=1 bus1=337691.1 bus2= MRT_337691TRF_16_2195A.1 linecode=LC_MRT_TRF_16_2195A_1 length=0.001 units=km
New Reactor.TRF_16_2195A_R phases=1 bus1=ET16_2195.4 R=15 X=0 basefreq=60
New Transformer.TRF_16_2428A phases=1 windings=3 buses=[MRT_359221TRF_16_2428A.2 ET16_2428.1.4 ET16_2428.4.2] conns=[Wye Wye Wye] kvs=[13.3367912182804 0.22 0.22] kvas=[5 5 5] %loadloss=2.1 %noloadloss=0.7
New Linecode.LC_MRT_TRF_16_2428A_1 nphases=1 basefreq=60 r1=15000 x1=0 units=km normamps=0
New Linecode.LC_MRT_TRF_16_2428A_2 nphases=2 basefreq=60 r1=15000 x1=0 units=km normamps=0
New Linecode.LC_MRT_TRF_16_2428A_3 nphases=3 basefreq=60 r1=15000 x1=0 units=km normamps=0
New Linecode.LC_MRT_TRF_16_2428A_4 nphases=4 basefreq=60 r1=15000 x1=0 units=km normamps=0
New Line.Resist_MTR_TRF_16_2428A phases=1 bus1=359221.2 bus2= MRT_359221TRF_16_2428A.2 linecode=LC_MRT_TRF_16_2428A_1 length=0.001 units=km
New Reactor.TRF_16_2428A_R phases=1 bus1=ET16_2428.4 R=15 X=0 basefreq=60
New Transformer.TRF_16_2658A phases=3 windings=2 buses=[445011.1.2.3 ET16_2658.1.2.3.4] conns=[Delta Wye] kvs=[23.1 0.38] kvas=[15 15] %loadloss=2.5 %noloadloss=0.633333
New Reactor.TRF_16_2658A_R phases=1 bus1=ET16_2658.4 R=15 X=0 basefreq=60
New Transformer.TRF_16_2916A phases=1 windings=3 buses=[MRT_13941TRF_16_2916A.2 ET16_2916.1.4 ET16_2916.4.2] conns=[Wye Wye Wye] kvs=[13.3367912182804 0.22 0.22] kvas=[10 10 10] %loadloss=1.95 %noloadloss=0.5
New Linecode.LC_MRT_TRF_16_2916A_1 nphases=1 basefreq=60 r1=15000 x1=0 units=km normamps=0
New Linecode.LC_MRT_TRF_16_2916A_2 nphases=2 basefreq=60 r1=15000 x1=0 units=km normamps=0
New Linecode.LC_MRT_TRF_16_2916A_3 nphases=3 basefreq=60 r1=15000 x1=0 units=km normamps=0
New Linecode.LC_MRT_TRF_16_2916A_4 nphases=4 basefreq=60 r1=15000 x1=0 units=km normamps=0
New Line.Resist_MTR_TRF_16_2916A phases=1 bus1=13941.2 bus2= MRT_13941TRF_16_2916A.2 linecode=LC_MRT_TRF_16_2916A_1 length=0.001 units=km
New Reactor.TRF_16_2916A_R phases=1 bus1=ET16_2916.4 R=15 X=0 basefreq=60
New Transformer.TRF_16_299A phases=3 windings=2 buses=[48311.1.2.3 ET16_299.1.2.3.4] conns=[Delta Wye] kvs=[23.1 0.38] kvas=[45 45] %loadloss=1.866667 %noloadloss=0.477777
New Reactor.TRF_16_299A_R phases=1 bus1=ET16_299.4 R=15 X=0 basefreq=60
New Transformer.TRF_16_300A phases=1 windings=3 buses=[MRT_18501TRF_16_300A.1 ET16_300.1.4 ET16_300.4.2] conns=[Wye Wye Wye] kvs=[13.3367912182804 0.22 0.22] kvas=[15 15 15] %loadloss=1.766667 %noloadloss=0.433333
New Linecode.LC_MRT_TRF_16_300A_1 nphases=1 basefreq=60 r1=15000 x1=0 units=km normamps=0
New Linecode.LC_MRT_TRF_16_300A_2 nphases=2 basefreq=60 r1=15000 x1=0 units=km normamps=0
New Linecode.LC_MRT_TRF_16_300A_3 nphases=3 basefreq=60 r1=15000 x1=0 units=km normamps=0
New Linecode.LC_MRT_TRF_16_300A_4 nphases=4 basefreq=60 r1=15000 x1=0 units=km normamps=0
New Line.Resist_MTR_TRF_16_300A phases=1 bus1=18501.1 bus2= MRT_18501TRF_16_300A.1 linecode=LC_MRT_TRF_16_300A_1 length=0.001 units=km
New Reactor.TRF_16_300A_R phases=1 bus1=ET16_300.4 R=15 X=0 basefreq=60
New Transformer.TRF_16_301A phases=1 windings=3 buses=[72071.3.1 ET16_301.1.4 ET16_301.4.2] conns=[Delta Wye Wye] kvs=[23.1 0.22 0.22] kvas=[25 25 25] %loadloss=1.68 %noloadloss=0.4
New Reactor.TRF_16_301A_R phases=1 bus1=ET16_301.4 R=15 X=0 basefreq=60
New Transformer.TRF_16_302A phases=1 windings=3 buses=[MRT_72051TRF_16_302A.1 ET16_302.1.4 ET16_302.4.2] conns=[Wye Wye Wye] kvs=[13.3367912182804 0.22 0.22] kvas=[10 10 10] %loadloss=1.95 %noloadloss=0.5
New Linecode.LC_MRT_TRF_16_302A_1 nphases=1 basefreq=60 r1=15000 x1=0 units=km normamps=0
New Linecode.LC_MRT_TRF_16_302A_2 nphases=2 basefreq=60 r1=15000 x1=0 units=km normamps=0
New Linecode.LC_MRT_TRF_16_302A_3 nphases=3 basefreq=60 r1=15000 x1=0 units=km normamps=0
New Linecode.LC_MRT_TRF_16_302A_4 nphases=4 basefreq=60 r1=15000 x1=0 units=km normamps=0
New Line.Resist_MTR_TRF_16_302A phases=1 bus1=72051.1 bus2= MRT_72051TRF_16_302A.1 linecode=LC_MRT_TRF_16_302A_1 length=0.001 units=km
New Reactor.TRF_16_302A_R phases=1 bus1=ET16_302.4 R=15 X=0 basefreq=60
New Transformer.TRF_16_303A phases=1 windings=3 buses=[74761.3.1 ET16_303.1.4 ET16_303.4.2] conns=[Delta Wye Wye] kvs=[23.1 0.22 0.22] kvas=[15 15 15] %loadloss=1.933333 %noloadloss=0.5
New Reactor.TRF_16_303A_R phases=1 bus1=ET16_303.4 R=15 X=0 basefreq=60
New Transformer.TRF_16_3130A phases=3 windings=2 buses=[18551.1.2.3 ET16_3130.1.2.3.4] conns=[Delta Wye] kvs=[23.1 0.38] kvas=[30 30] %loadloss=2.1 %noloadloss=0.533333
New Reactor.TRF_16_3130A_R phases=1 bus1=ET16_3130.4 R=15 X=0 basefreq=60
New Transformer.TRF_16_3221A phases=1 windings=3 buses=[MRT_43051TRF_16_3221A.3 ET16_3221.1.4 ET16_3221.4.2] conns=[Wye Wye Wye] kvs=[13.3367912182804 0.22 0.22] kvas=[25 25 25] %loadloss=1.56 %noloadloss=0.36
New Linecode.LC_MRT_TRF_16_3221A_1 nphases=1 basefreq=60 r1=15000 x1=0 units=km normamps=0
New Linecode.LC_MRT_TRF_16_3221A_2 nphases=2 basefreq=60 r1=15000 x1=0 units=km normamps=0
New Linecode.LC_MRT_TRF_16_3221A_3 nphases=3 basefreq=60 r1=15000 x1=0 units=km normamps=0
New Linecode.LC_MRT_TRF_16_3221A_4 nphases=4 basefreq=60 r1=15000 x1=0 units=km normamps=0
New Line.Resist_MTR_TRF_16_3221A phases=1 bus1=43051.3 bus2= MRT_43051TRF_16_3221A.3 linecode=LC_MRT_TRF_16_3221A_1 length=0.001 units=km
New Reactor.TRF_16_3221A_R phases=1 bus1=ET16_3221.4 R=15 X=0 basefreq=60
New Transformer.TRF_16_3297A phases=1 windings=3 buses=[MRT_574261TRF_16_3297A.1 ET16_3297.1.4 ET16_3297.4.2] conns=[Wye Wye Wye] kvs=[13.3367912182804 0.22 0.22] kvas=[10 10 10] %loadloss=1.95 %noloadloss=0.5
New Linecode.LC_MRT_TRF_16_3297A_1 nphases=1 basefreq=60 r1=15000 x1=0 units=km normamps=0
New Linecode.LC_MRT_TRF_16_3297A_2 nphases=2 basefreq=60 r1=15000 x1=0 units=km normamps=0
New Linecode.LC_MRT_TRF_16_3297A_3 nphases=3 basefreq=60 r1=15000 x1=0 units=km normamps=0
New Linecode.LC_MRT_TRF_16_3297A_4 nphases=4 basefreq=60 r1=15000 x1=0 units=km normamps=0
New Line.Resist_MTR_TRF_16_3297A phases=1 bus1=574261.1 bus2= MRT_574261TRF_16_3297A.1 linecode=LC_MRT_TRF_16_3297A_1 length=0.001 units=km
New Reactor.TRF_16_3297A_R phases=1 bus1=ET16_3297.4 R=15 X=0 basefreq=60
New Transformer.TRF_16_3328A phases=1 windings=3 buses=[MRT_574241TRF_16_3328A.3 ET16_3328.1.4 ET16_3328.4.2] conns=[Wye Wye Wye] kvs=[13.3367912182804 0.22 0.22] kvas=[10 10 10] %loadloss=1.95 %noloadloss=0.5
New Linecode.LC_MRT_TRF_16_3328A_1 nphases=1 basefreq=60 r1=15000 x1=0 units=km normamps=0
New Linecode.LC_MRT_TRF_16_3328A_2 nphases=2 basefreq=60 r1=15000 x1=0 units=km normamps=0
New Linecode.LC_MRT_TRF_16_3328A_3 nphases=3 basefreq=60 r1=15000 x1=0 units=km normamps=0
New Linecode.LC_MRT_TRF_16_3328A_4 nphases=4 basefreq=60 r1=15000 x1=0 units=km normamps=0
New Line.Resist_MTR_TRF_16_3328A phases=1 bus1=574241.3 bus2= MRT_574241TRF_16_3328A.3 linecode=LC_MRT_TRF_16_3328A_1 length=0.001 units=km
New Reactor.TRF_16_3328A_R phases=1 bus1=ET16_3328.4 R=15 X=0 basefreq=60
New Transformer.TRF_16_3364A phases=3 windings=2 buses=[549621.1.2.3 ET16_3364.1.2.3.4] conns=[Delta Wye] kvs=[23.1 0.38] kvas=[15 15] %loadloss=2.5 %noloadloss=0.633333
New Reactor.TRF_16_3364A_R phases=1 bus1=ET16_3364.4 R=15 X=0 basefreq=60
New Transformer.TRF_16_3545A phases=1 windings=3 buses=[MRT_7321TRF_16_3545A.2 ET16_3545.1.4 ET16_3545.4.2] conns=[Wye Wye Wye] kvs=[13.3367912182804 0.22 0.22] kvas=[10 10 10] %loadloss=1.95 %noloadloss=0.5
New Linecode.LC_MRT_TRF_16_3545A_1 nphases=1 basefreq=60 r1=15000 x1=0 units=km normamps=0
New Linecode.LC_MRT_TRF_16_3545A_2 nphases=2 basefreq=60 r1=15000 x1=0 units=km normamps=0
New Linecode.LC_MRT_TRF_16_3545A_3 nphases=3 basefreq=60 r1=15000 x1=0 units=km normamps=0
New Linecode.LC_MRT_TRF_16_3545A_4 nphases=4 basefreq=60 r1=15000 x1=0 units=km normamps=0
New Line.Resist_MTR_TRF_16_3545A phases=1 bus1=7321.2 bus2= MRT_7321TRF_16_3545A.2 linecode=LC_MRT_TRF_16_3545A_1 length=0.001 units=km
New Reactor.TRF_16_3545A_R phases=1 bus1=ET16_3545.4 R=15 X=0 basefreq=60
New Transformer.TRF_16_3548A phases=1 windings=3 buses=[MRT_17881TRF_16_3548A.2 ET16_3548.1.4 ET16_3548.4.2] conns=[Wye Wye Wye] kvs=[13.3367912182804 0.22 0.22] kvas=[10 10 10] %loadloss=1.95 %noloadloss=0.5
New Linecode.LC_MRT_TRF_16_3548A_1 nphases=1 basefreq=60 r1=15000 x1=0 units=km normamps=0
New Linecode.LC_MRT_TRF_16_3548A_2 nphases=2 basefreq=60 r1=15000 x1=0 units=km normamps=0
New Linecode.LC_MRT_TRF_16_3548A_3 nphases=3 basefreq=60 r1=15000 x1=0 units=km normamps=0
New Linecode.LC_MRT_TRF_16_3548A_4 nphases=4 basefreq=60 r1=15000 x1=0 units=km normamps=0
New Line.Resist_MTR_TRF_16_3548A phases=1 bus1=17881.2 bus2= MRT_17881TRF_16_3548A.2 linecode=LC_MRT_TRF_16_3548A_1 length=0.001 units=km
New Reactor.TRF_16_3548A_R phases=1 bus1=ET16_3548.4 R=15 X=0 basefreq=60
New Transformer.TRF_16_3549A phases=1 windings=3 buses=[MRT_192191TRF_16_3549A.3 ET16_3549.1.4 ET16_3549.4.2] conns=[Wye Wye Wye] kvs=[13.3367912182804 0.22 0.22] kvas=[10 10 10] %loadloss=1.95 %noloadloss=0.5
New Linecode.LC_MRT_TRF_16_3549A_1 nphases=1 basefreq=60 r1=15000 x1=0 units=km normamps=0
New Linecode.LC_MRT_TRF_16_3549A_2 nphases=2 basefreq=60 r1=15000 x1=0 units=km normamps=0
New Linecode.LC_MRT_TRF_16_3549A_3 nphases=3 basefreq=60 r1=15000 x1=0 units=km normamps=0
New Linecode.LC_MRT_TRF_16_3549A_4 nphases=4 basefreq=60 r1=15000 x1=0 units=km normamps=0
New Line.Resist_MTR_TRF_16_3549A phases=1 bus1=192191.3 bus2= MRT_192191TRF_16_3549A.3 linecode=LC_MRT_TRF_16_3549A_1 length=0.001 units=km
New Reactor.TRF_16_3549A_R phases=1 bus1=ET16_3549.4 R=15 X=0 basefreq=60
New Transformer.TRF_16_3904A phases=1 windings=3 buses=[MRT_633781TRF_16_3904A.2 ET16_3904.1.4 ET16_3904.4.2] conns=[Wye Wye Wye] kvs=[13.3367912182804 0.22 0.22] kvas=[10 10 10] %loadloss=1.95 %noloadloss=0.5
New Linecode.LC_MRT_TRF_16_3904A_1 nphases=1 basefreq=60 r1=15000 x1=0 units=km normamps=0
New Linecode.LC_MRT_TRF_16_3904A_2 nphases=2 basefreq=60 r1=15000 x1=0 units=km normamps=0
New Linecode.LC_MRT_TRF_16_3904A_3 nphases=3 basefreq=60 r1=15000 x1=0 units=km normamps=0
New Linecode.LC_MRT_TRF_16_3904A_4 nphases=4 basefreq=60 r1=15000 x1=0 units=km normamps=0
New Line.Resist_MTR_TRF_16_3904A phases=1 bus1=633781.2 bus2= MRT_633781TRF_16_3904A.2 linecode=LC_MRT_TRF_16_3904A_1 length=0.001 units=km
New Reactor.TRF_16_3904A_R phases=1 bus1=ET16_3904.4 R=15 X=0 basefreq=60
New Transformer.TRF_16_3906A phases=1 windings=3 buses=[MRT_640651TRF_16_3906A.2 ET16_3906.1.4 ET16_3906.4.2] conns=[Wye Wye Wye] kvs=[13.3367912182804 0.22 0.22] kvas=[5 5 5] %loadloss=2.1 %noloadloss=0.7
New Linecode.LC_MRT_TRF_16_3906A_1 nphases=1 basefreq=60 r1=15000 x1=0 units=km normamps=0
New Linecode.LC_MRT_TRF_16_3906A_2 nphases=2 basefreq=60 r1=15000 x1=0 units=km normamps=0
New Linecode.LC_MRT_TRF_16_3906A_3 nphases=3 basefreq=60 r1=15000 x1=0 units=km normamps=0
New Linecode.LC_MRT_TRF_16_3906A_4 nphases=4 basefreq=60 r1=15000 x1=0 units=km normamps=0
New Line.Resist_MTR_TRF_16_3906A phases=1 bus1=640651.2 bus2= MRT_640651TRF_16_3906A.2 linecode=LC_MRT_TRF_16_3906A_1 length=0.001 units=km
New Reactor.TRF_16_3906A_R phases=1 bus1=ET16_3906.4 R=15 X=0 basefreq=60
New Transformer.TRF_16_3908A phases=1 windings=3 buses=[MRT_611471TRF_16_3908A.3 ET16_3908.1.4 ET16_3908.4.2] conns=[Wye Wye Wye] kvs=[13.3367912182804 0.22 0.22] kvas=[10 10 10] %loadloss=1.95 %noloadloss=0.5
New Linecode.LC_MRT_TRF_16_3908A_1 nphases=1 basefreq=60 r1=15000 x1=0 units=km normamps=0
New Linecode.LC_MRT_TRF_16_3908A_2 nphases=2 basefreq=60 r1=15000 x1=0 units=km normamps=0
New Linecode.LC_MRT_TRF_16_3908A_3 nphases=3 basefreq=60 r1=15000 x1=0 units=km normamps=0
New Linecode.LC_MRT_TRF_16_3908A_4 nphases=4 basefreq=60 r1=15000 x1=0 units=km normamps=0
New Line.Resist_MTR_TRF_16_3908A phases=1 bus1=611471.3 bus2= MRT_611471TRF_16_3908A.3 linecode=LC_MRT_TRF_16_3908A_1 length=0.001 units=km
New Reactor.TRF_16_3908A_R phases=1 bus1=ET16_3908.4 R=15 X=0 basefreq=60
New Transformer.TRF_16_3996A phases=1 windings=3 buses=[MRT_31721TRF_16_3996A.3 ET16_3996.1.4 ET16_3996.4.2] conns=[Wye Wye Wye] kvs=[13.3367912182804 0.22 0.22] kvas=[15 15 15] %loadloss=1.766667 %noloadloss=0.433333
New Linecode.LC_MRT_TRF_16_3996A_1 nphases=1 basefreq=60 r1=15000 x1=0 units=km normamps=0
New Linecode.LC_MRT_TRF_16_3996A_2 nphases=2 basefreq=60 r1=15000 x1=0 units=km normamps=0
New Linecode.LC_MRT_TRF_16_3996A_3 nphases=3 basefreq=60 r1=15000 x1=0 units=km normamps=0
New Linecode.LC_MRT_TRF_16_3996A_4 nphases=4 basefreq=60 r1=15000 x1=0 units=km normamps=0
New Line.Resist_MTR_TRF_16_3996A phases=1 bus1=31721.3 bus2= MRT_31721TRF_16_3996A.3 linecode=LC_MRT_TRF_16_3996A_1 length=0.001 units=km
New Reactor.TRF_16_3996A_R phases=1 bus1=ET16_3996.4 R=15 X=0 basefreq=60
New Transformer.TRF_16_3997A phases=3 windings=2 buses=[641761.1.2.3 ET16_3997.1.2.3.4] conns=[Delta Wye] kvs=[23.1 0.38] kvas=[30 30] %loadloss=2.1 %noloadloss=0.533333
New Reactor.TRF_16_3997A_R phases=1 bus1=ET16_3997.4 R=15 X=0 basefreq=60
New Transformer.TRF_16_4173A phases=1 windings=3 buses=[MRT_308581TRF_16_4173A.1 ET16_4173.1.4 ET16_4173.4.2] conns=[Wye Wye Wye] kvs=[13.3367912182804 0.22 0.22] kvas=[10 10 10] %loadloss=1.95 %noloadloss=0.5
New Linecode.LC_MRT_TRF_16_4173A_1 nphases=1 basefreq=60 r1=15000 x1=0 units=km normamps=0
New Linecode.LC_MRT_TRF_16_4173A_2 nphases=2 basefreq=60 r1=15000 x1=0 units=km normamps=0
New Linecode.LC_MRT_TRF_16_4173A_3 nphases=3 basefreq=60 r1=15000 x1=0 units=km normamps=0
New Linecode.LC_MRT_TRF_16_4173A_4 nphases=4 basefreq=60 r1=15000 x1=0 units=km normamps=0
New Line.Resist_MTR_TRF_16_4173A phases=1 bus1=308581.1 bus2= MRT_308581TRF_16_4173A.1 linecode=LC_MRT_TRF_16_4173A_1 length=0.001 units=km
New Reactor.TRF_16_4173A_R phases=1 bus1=ET16_4173.4 R=15 X=0 basefreq=60
New Transformer.TRF_16_4674A phases=3 windings=2 buses=[337711.1.2.3 ET16_4674.1.2.3.4] conns=[Delta Wye] kvs=[23.1 0.38] kvas=[225 225] %loadloss=1.28 %noloadloss=0.322222
New Reactor.TRF_16_4674A_R phases=1 bus1=ET16_4674.4 R=15 X=0 basefreq=60
New Transformer.TRF_16_4687A phases=3 windings=2 buses=[358691.1.2.3 ET16_4687.1.2.3.4] conns=[Delta Wye] kvs=[23.1 0.38] kvas=[75 75] %loadloss=3.84 %noloadloss=0.966666
New Reactor.TRF_16_4687A_R phases=1 bus1=ET16_4687.4 R=15 X=0 basefreq=60
New Transformer.TRF_16_4736A phases=1 windings=3 buses=[MRT_716001TRF_16_4736A.3 ET16_4736.1.4 ET16_4736.4.2] conns=[Wye Wye Wye] kvs=[13.3367912182804 0.22 0.22] kvas=[10 10 10] %loadloss=1.95 %noloadloss=0.5
New Linecode.LC_MRT_TRF_16_4736A_1 nphases=1 basefreq=60 r1=15000 x1=0 units=km normamps=0
New Linecode.LC_MRT_TRF_16_4736A_2 nphases=2 basefreq=60 r1=15000 x1=0 units=km normamps=0
New Linecode.LC_MRT_TRF_16_4736A_3 nphases=3 basefreq=60 r1=15000 x1=0 units=km normamps=0
New Linecode.LC_MRT_TRF_16_4736A_4 nphases=4 basefreq=60 r1=15000 x1=0 units=km normamps=0
New Line.Resist_MTR_TRF_16_4736A phases=1 bus1=716001.3 bus2= MRT_716001TRF_16_4736A.3 linecode=LC_MRT_TRF_16_4736A_1 length=0.001 units=km
New Reactor.TRF_16_4736A_R phases=1 bus1=ET16_4736.4 R=15 X=0 basefreq=60
New Transformer.TRF_16_5003A phases=1 windings=3 buses=[MRT_724281TRF_16_5003A.3 ET16_5003.1.4 ET16_5003.4.2] conns=[Wye Wye Wye] kvs=[13.3367912182804 0.22 0.22] kvas=[15 15 15] %loadloss=1.766667 %noloadloss=0.433333
New Linecode.LC_MRT_TRF_16_5003A_1 nphases=1 basefreq=60 r1=15000 x1=0 units=km normamps=0
New Linecode.LC_MRT_TRF_16_5003A_2 nphases=2 basefreq=60 r1=15000 x1=0 units=km normamps=0
New Linecode.LC_MRT_TRF_16_5003A_3 nphases=3 basefreq=60 r1=15000 x1=0 units=km normamps=0
New Linecode.LC_MRT_TRF_16_5003A_4 nphases=4 basefreq=60 r1=15000 x1=0 units=km normamps=0
New Line.Resist_MTR_TRF_16_5003A phases=1 bus1=724281.3 bus2= MRT_724281TRF_16_5003A.3 linecode=LC_MRT_TRF_16_5003A_1 length=0.001 units=km
New Reactor.TRF_16_5003A_R phases=1 bus1=ET16_5003.4 R=15 X=0 basefreq=60
New Transformer.TRF_16_504A phases=1 windings=3 buses=[44381.1.2 ET16_504.1.4 ET16_504.4.2] conns=[Delta Wye Wye] kvs=[23.1 0.22 0.22] kvas=[15 15 15] %loadloss=1.933333 %noloadloss=0.5
New Reactor.TRF_16_504A_R phases=1 bus1=ET16_504.4 R=15 X=0 basefreq=60
New Transformer.TRF_16_5055A phases=1 windings=3 buses=[MRT_721411TRF_16_5055A.3 ET16_5055.1.4 ET16_5055.4.2] conns=[Wye Wye Wye] kvs=[13.3367912182804 0.11 0.11] kvas=[10 10 10] %loadloss=1.95 %noloadloss=0.5
New Linecode.LC_MRT_TRF_16_5055A_1 nphases=1 basefreq=60 r1=15000 x1=0 units=km normamps=0
New Linecode.LC_MRT_TRF_16_5055A_2 nphases=2 basefreq=60 r1=15000 x1=0 units=km normamps=0
New Linecode.LC_MRT_TRF_16_5055A_3 nphases=3 basefreq=60 r1=15000 x1=0 units=km normamps=0
New Linecode.LC_MRT_TRF_16_5055A_4 nphases=4 basefreq=60 r1=15000 x1=0 units=km normamps=0
New Line.Resist_MTR_TRF_16_5055A phases=1 bus1=721411.3 bus2= MRT_721411TRF_16_5055A.3 linecode=LC_MRT_TRF_16_5055A_1 length=0.001 units=km
New Reactor.TRF_16_5055A_R phases=1 bus1=ET16_5055.4 R=15 X=0 basefreq=60
New Transformer.TRF_16_537A phases=1 windings=3 buses=[30941.3.1 ET16_537.1.4 ET16_537.4.2] conns=[Delta Wye Wye] kvs=[23.1 0.22 0.22] kvas=[5 5 5] %loadloss=2.3 %noloadloss=0.8
New Reactor.TRF_16_537A_R phases=1 bus1=ET16_537.4 R=15 X=0 basefreq=60
New Transformer.TRF_16_538A phases=3 windings=2 buses=[60991.1.2.3 ET16_538.1.2.3.4] conns=[Delta Wye] kvs=[23.1 0.38] kvas=[30 30] %loadloss=2.1 %noloadloss=0.533333
New Reactor.TRF_16_538A_R phases=1 bus1=ET16_538.4 R=15 X=0 basefreq=60
New Transformer.TRF_16_539A phases=1 windings=3 buses=[60171.3.1 ET16_539.1.4 ET16_539.4.2] conns=[Delta Wye Wye] kvs=[23.1 0.22 0.22] kvas=[10 10 10] %loadloss=1.15 %noloadloss=0.4
New Reactor.TRF_16_539A_R phases=1 bus1=ET16_539.4 R=15 X=0 basefreq=60
New Transformer.TRF_16_5474A phases=1 windings=3 buses=[MRT_14031TRF_16_5474A.2 ET16_5474.1.4 ET16_5474.4.2] conns=[Wye Wye Wye] kvs=[13.3367912182804 0.22 0.22] kvas=[10 10 10] %loadloss=1.95 %noloadloss=0.5
New Linecode.LC_MRT_TRF_16_5474A_1 nphases=1 basefreq=60 r1=15000 x1=0 units=km normamps=0
New Linecode.LC_MRT_TRF_16_5474A_2 nphases=2 basefreq=60 r1=15000 x1=0 units=km normamps=0
New Linecode.LC_MRT_TRF_16_5474A_3 nphases=3 basefreq=60 r1=15000 x1=0 units=km normamps=0
New Linecode.LC_MRT_TRF_16_5474A_4 nphases=4 basefreq=60 r1=15000 x1=0 units=km normamps=0
New Line.Resist_MTR_TRF_16_5474A phases=1 bus1=14031.2 bus2= MRT_14031TRF_16_5474A.2 linecode=LC_MRT_TRF_16_5474A_1 length=0.001 units=km
New Reactor.TRF_16_5474A_R phases=1 bus1=ET16_5474.4 R=15 X=0 basefreq=60