New Line.SMT_100 phases=1 bus1=78191.1 bus2= 582431.1 linecode=1_1 length=0.24816 units=km
New Line.SMT_1009 phases=1 bus1=41161.1 bus2= 41171.1 linecode=1_1 length=0.08026 units=km
New Line.SMT_10123 phases=3 bus1=4421.1.2.3 bus2= 4431.1.2.3 linecode=10_3 length=0.03748 units=km
New Line.SMT_10162 phases=1 bus1=19201.2 bus2= 691081.2 linecode=1_1 length=0.00445 units=km
New Line.SMT_10216 phases=3 bus1=646791.1.2.3 bus2= 4411.1.2.3 linecode=10_3 length=0.16125 units=km
New Line.SMT_10274 phases=3 bus1=4411.1.2.3 bus2= 4421.1.2.3 linecode=10_3 length=0.08563 units=km
New Line.SMT_10336 phases=1 bus1=192221.1 bus2= 192241.1 linecode=1_1 length=0.11183 units=km
New Line.SMT_1035 phases=1 bus1=19CF1098.1 bus2= 76231.1 linecode=1_1 length=0.08593 units=km
New Line.SMT_1036 phases=1 bus1=136871.2 bus2= 633021.2 linecode=1_1 length=0.0103 units=km
New Line.SMT_10368 phases=1 bus1=38971.3 bus2= 38981.3 linecode=1_1 length=0.05263 units=km
New Line.SMT_1037 phases=1 bus1=76231.1 bus2= 76241.1 linecode=1_1 length=0.13173 units=km
New Line.SMT_10491 phases=1 bus1=192241.1 bus2= 603941.1 linecode=1_1 length=0.0871 units=km
New Line.SMT_10829 phases=1 bus1=318611.2 bus2= 318621.2 linecode=1_1 length=0.05004 units=km
New Line.SMT_10850 phases=1 bus1=38941.3 bus2= 38971.3 linecode=1_1 length=0.27644 units=km
New Line.SMT_10979 phases=3 bus1=60731.1.2.3 bus2= 553681.1.2.3 linecode=10_3 length=0.00271 units=km
New Line.SMT_1104 phases=1 bus1=352141.3 bus2= 352171.3 linecode=1_1 length=0.20537 units=km
New Line.SMT_1105 phases=1 bus1=352181.3 bus2= 352191.3 linecode=1_1 length=0.18062 units=km
New Line.SMT_11059 phases=1 bus1=43601.1 bus2= 43621.1 linecode=1_1 length=0.32315 units=km
New Line.SMT_1106 phases=1 bus1=352191.3 bus2= 625831.3 linecode=1_1 length=0.15306 units=km
New Line.SMT_11070 phases=3 bus1=93181.1.2.3 bus2= 93221.1.2.3 linecode=13_3 length=0.11819 units=km
New Line.SMT_11189 phases=3 bus1=86121.1.2.3 bus2= 764531.1.2.3 linecode=10_3 length=0.00283 units=km
New Line.SMT_11252 phases=1 bus1=120241.1 bus2= 120221.1 linecode=1_1 length=0.17664 units=km
New Line.SMT_11253 phases=1 bus1=120221.1 bus2= 137891.1 linecode=1_1 length=0.05445 units=km
New Line.SMT_11327 phases=3 bus1=39851.1.2.3 bus2= 266931.1.2.3 linecode=10_3 length=0.05623 units=km
New Line.SMT_11400 phases=3 bus1=27201.1.2.3 bus2= 37041.1.2.3 linecode=10_3 length=0.08587 units=km
New Line.SMT_11401 phases=1 bus1=29451.3 bus2= 29461.3 linecode=37_1 length=0.11176 units=km
New Line.SMT_1143 phases=1 bus1=562001.1 bus2= 649121.1 linecode=1_1 length=0.04022 units=km
New Line.SMT_11437 phases=1 bus1=100131.2 bus2= 100161.2 linecode=1_1 length=0.0822 units=km
New Line.SMT_11450 phases=2 bus1=37211.2.3 bus2= 37231.2.3 linecode=18_2 length=0.10966 units=km
New Line.SMT_11462 phases=3 bus1=27191.1.2.3 bus2= 27201.1.2.3 linecode=10_3 length=0.07379 units=km
New Line.SMT_11474 phases=1 bus1=561671.1 bus2= 561681.1 linecode=1_1 length=0.12107 units=km
New Line.SMT_11475 phases=1 bus1=561681.1 bus2= 561691.1 linecode=1_1 length=0.06013 units=km
New Line.SMT_11476 phases=1 bus1=561691.1 bus2= 561701.1 linecode=1_1 length=0.04201 units=km
New Line.SMT_11479 phases=1 bus1=59211.2 bus2= 59221.2 linecode=1_1 length=0.09619 units=km
New Line.SMT_11480 phases=3 bus1=42661.1.2.3 bus2= 42671.1.2.3 linecode=10_3 length=0.09129 units=km
New Line.SMT_11484 phases=1 bus1=63401.1 bus2= 63411.1 linecode=1_1 length=0.08913 units=km
New Line.SMT_11486 phases=3 bus1=45501.1.2.3 bus2= 45581.1.2.3 linecode=13_3 length=0.04383 units=km
New Line.SMT_11487 phases=3 bus1=27181.1.2.3 bus2= 27191.1.2.3 linecode=10_3 length=0.11316 units=km
New Line.SMT_11493 phases=1 bus1=35291.1 bus2= 639491.1 linecode=1_1 length=0.15412 units=km
New Line.SMT_11497 phases=3 bus1=37051.1.2.3 bus2= 37061.1.2.3 linecode=10_3 length=0.0894 units=km
New Line.SMT_11524 phases=3 bus1=37061.1.2.3 bus2= 37071.1.2.3 linecode=10_3 length=0.09765 units=km
New Line.SMT_11533 phases=2 bus1=38041.2.3 bus2= 38051.2.3 linecode=18_2 length=0.09982 units=km
New Line.SMT_11534 phases=2 bus1=37251.2.3 bus2= 38041.2.3 linecode=18_2 length=0.08766 units=km
New Line.SMT_11540 phases=2 bus1=37161.2.3 bus2= 37191.2.3 linecode=18_2 length=0.0815 units=km
New Line.SMT_11541 phases=2 bus1=37131.2.3 bus2= 37161.2.3 linecode=18_2 length=0.09354 units=km
New Line.SMT_11542 phases=2 bus1=37121.2.3 bus2= 37131.2.3 linecode=18_2 length=0.07642 units=km
New Line.SMT_11544 phases=1 bus1=43621.1 bus2= 43651.1 linecode=1_1 length=0.0969 units=km
New Line.SMT_11545 phases=3 bus1=595901.1.2.3 bus2= 60731.1.2.3 linecode=13_3 length=0.07666 units=km
New Line.SMT_11546 phases=1 bus1=43651.1 bus2= 43681.1 linecode=1_1 length=0.28356 units=km
New Line.SMT_11550 phases=3 bus1=731.1.2.3 bus2= 751.1.2.3 linecode=10_3 length=0.07106 units=km
New Line.SMT_11551 phases=1 bus1=43691.1 bus2= 43721.1 linecode=1_1 length=0.14909 units=km
New Line.SMT_11552 phases=3 bus1=46331.1.2.3 bus2= 46351.1.2.3 linecode=13_3 length=0.06953 units=km
New Line.SMT_11566 phases=1 bus1=59251.2 bus2= 59261.2 linecode=1_1 length=0.09072 units=km
New Line.SMT_11567 phases=1 bus1=63431.1 bus2= 63441.1 linecode=1_1 length=0.19703 units=km
New Line.SMT_11570 phases=1 bus1=639491.1 bus2= 639501.1 linecode=1_1 length=0.03606 units=km
New Line.SMT_11583 phases=3 bus1=27171.1.2.3 bus2= 27181.1.2.3 linecode=10_3 length=0.12931 units=km
New Line.SMT_11604 phases=2 bus1=37241.2.3 bus2= 37251.2.3 linecode=18_2 length=0.11353 units=km
New Line.SMT_11605 phases=2 bus1=37231.2.3 bus2= 37241.2.3 linecode=18_2 length=0.12976 units=km
New Line.SMT_11622 phases=1 bus1=100191.2 bus2= 100201.2 linecode=1_1 length=0.11526 units=km
New Line.SMT_11650 phases=3 bus1=63571.1.2.3 bus2= 63581.1.2.3 linecode=10_3 length=0.0758 units=km
New Line.SMT_11656 phases=1 bus1=63391.1 bus2= 63401.1 linecode=1_1 length=0.13114 units=km
New Line.SMT_11717 phases=2 bus1=37111.2.3 bus2= 37121.2.3 linecode=18_2 length=0.07368 units=km
New Line.SMT_11718 phases=2 bus1=37101.2.3 bus2= 779031.2.3 linecode=18_2 length=0.00194 units=km
New Line.SMT_11719 phases=2 bus1=37091.2.3 bus2= 37101.2.3 linecode=18_2 length=0.09003 units=km
New Line.SMT_11724 phases=3 bus1=24761.1.2.3 bus2= 24771.1.2.3 linecode=10_3 length=0.07376 units=km
New Line.SMT_11725 phases=3 bus1=714361.1.2.3 bus2= 731.1.2.3 linecode=10_3 length=0.12151 units=km
New Line.SMT_11726 phases=1 bus1=43681.1 bus2= 43691.1 linecode=1_1 length=0.23368 units=km
New Line.SMT_11727 phases=3 bus1=647071.1.2.3 bus2= 46331.1.2.3 linecode=13_3 length=0.09365 units=km
New Line.SMT_11728 phases=1 bus1=59221.2 bus2= 59231.2 linecode=1_1 length=0.14412 units=km
New Line.SMT_11742 phases=3 bus1=37091.1.2.3 bus2= 29421.1.2.3 linecode=10_3 length=0.09982 units=km
New Line.SMT_11748 phases=3 bus1=27121.1.2.3 bus2= 27161.1.2.3 linecode=10_3 length=0.106 units=km
New Line.SMT_11749 phases=3 bus1=63591.1.2.3 bus2= 63641.1.2.3 linecode=4_3 length=0.07333 units=km
New Line.SMT_11750 phases=1 bus1=63441.1 bus2= 63461.1 linecode=1_1 length=0.051 units=km
New Line.SMT_11754 phases=3 bus1=43201.1.2.3 bus2= 43211.1.2.3 linecode=10_3 length=0.08746 units=km
New Line.SMT_11756 phases=1 bus1=9CS257.1 bus2= 62451.1 linecode=1_1 length=0.13429 units=km
New Line.SMT_11757 phases=3 bus1=363011.1.2.3 bus2= 45491.1.2.3 linecode=10_3 length=0.05682 units=km
New Line.SMT_11759 phases=3 bus1=37041.1.2.3 bus2= 37051.1.2.3 linecode=10_3 length=0.13865 units=km
New Line.SMT_11760 phases=1 bus1=9CF1018.3 bus2= 29451.3 linecode=37_1 length=0.33402 units=km
New Line.SMT_11763 phases=1 bus1=562551.2 bus2= 562561.2 linecode=1_1 length=0.05408 units=km
New Line.SMT_11786 phases=1 bus1=63461.1 bus2= 63471.1 linecode=1_1 length=0.14768 units=km
New Line.SMT_11787 phases=1 bus1=761.3 bus2= 781.3 linecode=1_1 length=0.05749 units=km
New Line.SMT_11788 phases=1 bus1=43731.1 bus2= 63381.1 linecode=1_1 length=0.14135 units=km
New Line.SMT_11791 phases=3 bus1=27061.1.2.3 bus2= 27091.1.2.3 linecode=10_3 length=0.2009 units=km
New Line.SMT_11792 phases=1 bus1=62431.1 bus2= 62441.1 linecode=1_1 length=0.5821 units=km
New Line.SMT_11801 phases=3 bus1=40471.1.2.3 bus2= 276801.1.2.3 linecode=10_3 length=0.03578 units=km
New Line.SMT_1181 phases=3 bus1=19381.1.2.3 bus2= 636471.1.2.3 linecode=10_3 length=0.07156 units=km
New Line.SMT_11820 phases=1 bus1=445371.2 bus2= 536531.2 linecode=1_1 length=0.01334 units=km
New Line.SMT_11861 phases=3 bus1=27101.1.2.3 bus2= 27111.1.2.3 linecode=10_3 length=0.13454 units=km
New Line.SMT_11862 phases=3 bus1=9CF1316.1.2.3 bus2= 45451.1.2.3 linecode=4_3 length=0.05023 units=km
New Line.SMT_11863 phases=1 bus1=63491.1 bus2= 63501.1 linecode=1_1 length=0.09043 units=km
New Line.SMT_11864 phases=3 bus1=751.1.2.3 bus2= 761.1.2.3 linecode=10_3 length=0.08465 units=km
New Line.SMT_11874 phases=3 bus1=63581.1.2.3 bus2= 63591.1.2.3 linecode=10_3 length=0.23335 units=km
New Line.SMT_11875 phases=1 bus1=59241.2 bus2= 59251.2 linecode=1_1 length=0.07877 units=km
New Line.SMT_11876 phases=1 bus1=63421.1 bus2= 63431.1 linecode=1_1 length=0.13984 units=km
New Line.SMT_11881 phases=3 bus1=595871.1.2.3 bus2= 45471.1.2.3 linecode=10_3 length=0.05025 units=km
New Line.SMT_11882 phases=1 bus1=461281.1 bus2= 803231.1 linecode=1_1 length=0.00318 units=km
New Line.SMT_11884 phases=1 bus1=9CF1302.2 bus2= 364881.2 linecode=1_1 length=0.19407 units=km
New Line.SMT_11888 phases=1 bus1=536531.2 bus2= 468871.2 linecode=1_1 length=0.17467 units=km
New Line.SMT_11889 phases=1 bus1=468871.2 bus2= 468881.2 linecode=1_1 length=0.14833 units=km
New Line.SMT_11907 phases=3 bus1=45481.1.2.3 bus2= 363021.1.2.3 linecode=10_3 length=0.06754 units=km
New Line.SMT_11913 phases=3 bus1=363021.1.2.3 bus2= 363011.1.2.3 linecode=10_3 length=0.07654 units=km
New Line.SMT_11914 phases=1 bus1=62441.1 bus2= 295431.1 linecode=1_1 length=0.00396 units=km
New Line.SMT_11920 phases=3 bus1=43211.1.2.3 bus2= 27061.1.2.3 linecode=10_3 length=0.08701 units=km
New Line.SMT_11921 phases=3 bus1=24441.1.2.3 bus2= 624431.1.2.3 linecode=10_3 length=0.03265 units=km
New Line.SMT_11944 phases=3 bus1=29441.1.2.3 bus2= 42651.1.2.3 linecode=10_3 length=0.12465 units=km
New Line.SMT_11958 phases=3 bus1=46351.1.2.3 bus2= 46361.1.2.3 linecode=13_3 length=0.1196 units=km
New Line.SMT_11961 phases=3 bus1=27111.1.2.3 bus2= 27121.1.2.3 linecode=10_3 length=0.09519 units=km
New Line.SMT_11962 phases=1 bus1=59271.2 bus2= 571.2 linecode=1_1 length=0.11695 units=km
New Line.SMT_11963 phases=1 bus1=9CF1133.2 bus2= 59201.2 linecode=1_1 length=0.10423 units=km
New Line.SMT_11973 phases=1 bus1=63381.1 bus2= 63391.1 linecode=1_1 length=0.08502 units=km
New Line.SMT_11980 phases=3 bus1=647411.1.2.3 bus2= 45501.1.2.3 linecode=13_3 length=0.07125 units=km
New Line.SMT_11987 phases=1 bus1=63471.1 bus2= 63481.1 linecode=1_1 length=0.12572 units=km
New Line.SMT_11990 phases=3 bus1=92081.1.2.3 bus2= 215281.1.2.3 linecode=10_3 length=0.00278 units=km
New Line.SMT_12007 phases=1 bus1=468891.2 bus2= 468901.2 linecode=1_1 length=0.13512 units=km
New Line.SMT_12009 phases=1 bus1=43211.2 bus2= 753911.2 linecode=1_1 length=0.04972 units=km
New Line.SMT_12010 phases=3 bus1=43191.1.2.3 bus2= 478201.1.2.3 linecode=10_3 length=0.11971 units=km
New Line.SMT_12022 phases=1 bus1=43721.1 bus2= 43731.1 linecode=1_1 length=0.12281 units=km
New Line.SMT_12030 phases=3 bus1=27161.1.2.3 bus2= 27171.1.2.3 linecode=10_3 length=0.17634 units=km
New Line.SMT_12044 phases=1 bus1=59231.2 bus2= 59241.2 linecode=1_1 length=0.09497 units=km
New Line.SMT_1205 phases=1 bus1=625831.3 bus2= 625821.3 linecode=1_1 length=0.06791 units=km
New Line.SMT_12054 phases=3 bus1=42691.1.2.3 bus2= 42711.1.2.3 linecode=10_3 length=0.18061 units=km
New Line.SMT_12056 phases=1 bus1=63481.1 bus2= 63491.1 linecode=1_1 length=0.09949 units=km
New Line.SMT_12090 phases=3 bus1=27091.1.2.3 bus2= 27101.1.2.3 linecode=10_3 length=0.09485 units=km
New Line.SMT_12104 phases=1 bus1=125141.2 bus2= 125151.2 linecode=1_1 length=0.11386 units=km
New Line.SMT_12105 phases=1 bus1=125151.2 bus2= 562541.2 linecode=1_1 length=0.1899 units=km
New Line.SMT_12106 phases=1 bus1=562541.2 bus2= 562521.2 linecode=1_1 length=0.06935 units=km
New Line.SMT_12149 phases=1 bus1=46361.2 bus2= 96981.2 linecode=1_1 length=0.00307 units=km
New Line.SMT_12197 phases=1 bus1=727721.1 bus2= 43601.1 linecode=1_1 length=0.133 units=km
New Line.SMT_12216 phases=3 bus1=43181.1.2.3 bus2= 43191.1.2.3 linecode=10_3 length=0.11275 units=km
New Line.SMT_12224 phases=1 bus1=18711.1 bus2= 18721.1 linecode=1_1 length=0.09025 units=km
New Line.SMT_12225 phases=1 bus1=18721.1 bus2= 18731.1 linecode=1_1 length=0.11049 units=km
New Line.SMT_12226 phases=3 bus1=43141.1.2.3 bus2= 43151.1.2.3 linecode=10_3 length=0.08649 units=km
New Line.SMT_12227 phases=3 bus1=45621.1.2.3 bus2= 45631.1.2.3 linecode=13_3 length=0.06191 units=km
New Line.SMT_12242 phases=1 bus1=18731.1 bus2= 18741.1 linecode=1_1 length=0.09203 units=km
New Line.SMT_12355 phases=1 bus1=62451.1 bus2= 62501.1 linecode=1_1 length=0.17091 units=km
New Line.SMT_12361 phases=3 bus1=43161.1.2.3 bus2= 43181.1.2.3 linecode=10_3 length=0.1037 units=km
New Line.SMT_12362 phases=3 bus1=553651.1.2.3 bus2= 45601.1.2.3 linecode=13_3 length=0.08463 units=km
New Line.SMT_12384 phases=1 bus1=18692.1 bus2= 18711.1 linecode=1_1 length=0.10863 units=km
New Line.SMT_12426 phases=1 bus1=21CF1088.2 bus2= 649381.2 linecode=1_1 length=0.01089 units=km
New Line.SMT_12445 phases=1 bus1=62501.1 bus2= 62511.1 linecode=1_1 length=0.13824 units=km
New Line.SMT_12446 phases=3 bus1=45581.1.2.3 bus2= 45591.1.2.3 linecode=13_3 length=0.0446 units=km
New Line.SMT_12449 phases=1 bus1=582971.1 bus2= 690221.1 linecode=1_1 length=0.12008 units=km
New Line.SMT_12534 phases=3 bus1=83581.1.2.3 bus2= 83591.1.2.3 linecode=10_3 length=0.05982 units=km
New Line.SMT_12535 phases=1 bus1=83591.3 bus2= 83611.3 linecode=1_1 length=0.07547 units=km
New Line.SMT_12536 phases=1 bus1=83611.3 bus2= 84321.3 linecode=1_1 length=0.05324 units=km
New Line.SMT_12618 phases=1 bus1=582051.2 bus2= 582061.2 linecode=1_1 length=0.1609 units=km
New Line.SMT_12652 phases=1 bus1=136751.2 bus2= 136761.2 linecode=1_1 length=0.09784 units=km
New Line.SMT_12666 phases=1 bus1=126641.2 bus2= 264991.2 linecode=1_1 length=0.09825 units=km
New Line.SMT_1271 phases=1 bus1=125131.2 bus2= 125141.2 linecode=1_1 length=0.0483 units=km
New Line.SMT_12725 phases=1 bus1=113081.1 bus2= 130791.1 linecode=1_1 length=0.10102 units=km
New Line.SMT_12781 phases=1 bus1=136771.2 bus2= 582041.2 linecode=1_1 length=0.10044 units=km
New Line.SMT_12798 phases=1 bus1=582041.2 bus2= 582051.2 linecode=1_1 length=0.12241 units=km
New Line.SMT_12800 phases=3 bus1=26111.1.2.3 bus2= 38441.1.2.3 linecode=10_3 length=0.0664 units=km
New Line.SMT_12810 phases=1 bus1=562021.1 bus2= 562001.1 linecode=1_1 length=0.08905 units=km
New Line.SMT_12826 phases=1 bus1=561721.2 bus2= 561731.2 linecode=1_1 length=0.18329 units=km
New Line.SMT_12827 phases=1 bus1=561731.2 bus2= 561741.2 linecode=1_1 length=0.07565 units=km
New Line.SMT_12828 phases=1 bus1=561741.2 bus2= 561751.2 linecode=1_1 length=0.16329 units=km
New Line.SMT_12835 phases=1 bus1=630121.1 bus2= 582971.1 linecode=1_1 length=0.15544 units=km
New Line.SMT_12896 phases=1 bus1=561751.2 bus2= 561761.2 linecode=1_1 length=0.02119 units=km
New Line.SMT_12897 phases=1 bus1=561761.2 bus2= 561771.2 linecode=1_1 length=0.25731 units=km
New Line.SMT_12938 phases=1 bus1=100201.2 bus2= 561721.2 linecode=1_1 length=0.10155 units=km
New Line.SMT_12983 phases=1 bus1=124141.1 bus2= 124151.1 linecode=1_1 length=0.06198 units=km
New Line.SMT_13022 phases=3 bus1=19CF1413.1.2.3 bus2= 618311.1.2.3 linecode=10_3 length=0.01417 units=km
New Line.SMT_13045 phases=1 bus1=690221.1 bus2= 690231.1 linecode=1_1 length=0.23103 units=km
New Line.SMT_13075 phases=1 bus1=124151.1 bus2= 124161.1 linecode=1_1 length=0.07393 units=km
New Line.SMT_13076 phases=1 bus1=124171.1 bus2= 124181.1 linecode=1_1 length=0.05924 units=km
New Line.SMT_13077 phases=1 bus1=124181.1 bus2= 561831.1 linecode=1_1 length=0.09424 units=km
New Line.SMT_13124 phases=1 bus1=45501.1 bus2= 45511.1 linecode=1_1 length=0.2694 units=km
New Line.SMT_13167 phases=3 bus1=651511.1.2.3 bus2= 683641.1.2.3 linecode=10_3 length=0.07731 units=km
New Line.SMT_13233 phases=3 bus1=19431.1.2.3 bus2= 19441.1.2.3 linecode=10_3 length=0.08839 units=km
New Line.SMT_13234 phases=3 bus1=83561.1.2.3 bus2= 791671.1.2.3 linecode=10_3 length=0.00085 units=km
New Line.SMT_13254 phases=1 bus1=562031.1 bus2= 562041.1 linecode=1_1 length=0.08698 units=km
New Line.SMT_13255 phases=1 bus1=248471.2 bus2= 248521.2 linecode=1_1 length=0.07452 units=km
New Line.SMT_13256 phases=1 bus1=248521.2 bus2= 267051.2 linecode=1_1 length=0.05148 units=km
New Line.SMT_13316 phases=1 bus1=8251.3 bus2= 8261.3 linecode=1_1 length=0.0771 units=km
New Line.SMT_13346 phases=1 bus1=120401.1 bus2= 562021.1 linecode=1_1 length=0.12308 units=km
New Line.SMT_1347 phases=1 bus1=76251.1 bus2= 76261.1 linecode=1_1 length=0.09266 units=km
New Line.SMT_13509 phases=1 bus1=22661.3 bus2= 22671.3 linecode=1_1 length=0.06703 units=km
New Line.SMT_13515 phases=1 bus1=109911.3 bus2= 280751.3 linecode=1_1 length=0.04571 units=km
New Line.SMT_13577 phases=1 bus1=690241.1 bus2= 690251.1 linecode=1_1 length=0.07808 units=km
New Line.SMT_13586 phases=1 bus1=8261.3 bus2= 22651.3 linecode=1_1 length=0.11216 units=km
New Line.SMT_13587 phases=1 bus1=22651.3 bus2= 22661.3 linecode=1_1 length=0.06905 units=km
New Line.SMT_136 phases=2 bus1=149161.3.1 bus2= 642131.3.1 linecode=18_2 length=0.09936 units=km
New Line.SMT_14304 phases=1 bus1=130791.1 bus2= 112921.1 linecode=1_1 length=0.09014 units=km
New Line.SMT_1431 phases=1 bus1=9CF1021.1 bus2= 559621.1 linecode=1_1 length=0.27319 units=km
New Line.SMT_14314 phases=1 bus1=45511.1 bus2= 45521.1 linecode=1_1 length=0.06329 units=km
New Line.SMT_1432 phases=1 bus1=559621.1 bus2= 559641.1 linecode=1_1 length=0.06335 units=km
New Line.SMT_1433 phases=1 bus1=559631.1 bus2= 559681.1 linecode=1_1 length=0.00497 units=km
New Line.SMT_14342 phases=1 bus1=112921.1 bus2= 343101.1 linecode=1_1 length=0.07638 units=km
New Line.SMT_1440 phases=1 bus1=76261.1 bus2= 76271.1 linecode=1_1 length=0.08633 units=km
New Line.SMT_1444 phases=1 bus1=150261.1 bus2= 669171.1 linecode=1_1 length=0.00267 units=km
New Line.SMT_14614 phases=1 bus1=341461.1 bus2= 331871.1 linecode=1_1 length=0.12724 units=km
New Line.SMT_1479 phases=1 bus1=120001.3 bus2= 584911.3 linecode=1_1 length=0.08061 units=km
New Line.SMT_14799 phases=1 bus1=331871.1 bus2= 313231.1 linecode=1_1 length=0.06531 units=km
New Line.SMT_14800 phases=1 bus1=313231.1 bus2= 313241.1 linecode=1_1 length=0.06843 units=km
New Line.SMT_14957 phases=1 bus1=313241.1 bus2= 313251.1 linecode=1_1 length=0.11413 units=km
New Line.SMT_1536 phases=1 bus1=522581.1 bus2= 559631.1 linecode=1_1 length=0.02159 units=km
New Line.SMT_1541 phases=1 bus1=559641.1 bus2= 559651.1 linecode=1_1 length=0.08319 units=km
New Line.SMT_1558 phases=1 bus1=9CF1051.1 bus2= 633321.1 linecode=1_1 length=0.07509 units=km
New Line.SMT_15590 phases=1 bus1=9CF1052.3 bus2= 624041.3 linecode=1_1 length=0.12146 units=km
New Line.SMT_15653 phases=1 bus1=124881.3 bus2= 624031.3 linecode=1_1 length=0.02796 units=km
New Line.SMT_15750 phases=3 bus1=626391.1.2.3 bus2= 626381.1.2.3 linecode=10_3 length=0.12376 units=km
New Line.SMT_15774 phases=3 bus1=626371.1.2.3 bus2= 626361.1.2.3 linecode=10_3 length=0.09079 units=km
New Line.SMT_15775 phases=1 bus1=9CF1318.2 bus2= 140341.2 linecode=1_1 length=0.02885 units=km
New Line.SMT_15799 phases=3 bus1=522591.1.2.3 bus2= 522601.1.2.3 linecode=10_3 length=0.07178 units=km
New Line.SMT_15913 phases=1 bus1=18631.1 bus2= 18681.1 linecode=1_1 length=0.1961 units=km
New Line.SMT_15988 phases=3 bus1=38501.1.2.3 bus2= 585911.1.2.3 linecode=10_3 length=0.105 units=km
New Line.SMT_16002 phases=1 bus1=36981.2 bus2= 36991.2 linecode=27_1 length=0.08228 units=km
New Line.SMT_16008 phases=3 bus1=149321.1.2.3 bus2= 585921.1.2.3 linecode=10_3 length=0.05933 units=km
New Line.SMT_16020 phases=3 bus1=94111.1.2.3 bus2= 585941.1.2.3 linecode=10_3 length=0.00497 units=km
New Line.SMT_16130 phases=3 bus1=522571.1.2.3 bus2= 522581.1.2.3 linecode=10_3 length=0.18385 units=km
New Line.SMT_16163 phases=3 bus1=522581.1.2.3 bus2= 522591.1.2.3 linecode=10_3 length=0.08132 units=km
New Line.SMT_16175 phases=1 bus1=34151.2 bus2= 540411.2 linecode=1_1 length=0.11161 units=km
New Line.SMT_16177 phases=1 bus1=150121.1 bus2= 150151.1 linecode=1_1 length=0.13939 units=km
New Line.SMT_16181 phases=1 bus1=123871.3 bus2= 625481.3 linecode=1_1 length=0.07723 units=km
New Line.SMT_16182 phases=1 bus1=625481.3 bus2= 123971.3 linecode=1_1 length=0.13923 units=km
New Line.SMT_16210 phases=3 bus1=626381.1.2.3 bus2= 626371.1.2.3 linecode=10_3 length=0.09052 units=km
New Line.SMT_16229 phases=1 bus1=140341.2 bus2= 140361.2 linecode=1_1 length=0.31476 units=km
New Line.SMT_16230 phases=1 bus1=140361.2 bus2= 607671.2 linecode=1_1 length=0.03265 units=km
New Line.SMT_16242 phases=3 bus1=617331.1.2.3 bus2= 617341.1.2.3 linecode=10_3 length=0.07864 units=km
New Line.SMT_16249 phases=3 bus1=522601.1.2.3 bus2= 617331.1.2.3 linecode=10_3 length=0.17266 units=km
New Line.SMT_16275 phases=3 bus1=129831.1.2.3 bus2= 648111.1.2.3 linecode=10_3 length=0.0028 units=km
New Line.SMT_16276 phases=3 bus1=617341.1.2.3 bus2= 617351.1.2.3 linecode=10_3 length=0.15572 units=km
New Line.SMT_16332 phases=1 bus1=649381.2 bus2= 649461.2 linecode=1_1 length=0.04245 units=km
New Line.SMT_16333 phases=1 bus1=23941.2 bus2= 649481.2 linecode=1_1 length=0.00401 units=km
New Line.SMT_16340 phases=3 bus1=9831.1.2.3 bus2= 219301.1.2.3 linecode=13_3 length=0.0658 units=km
New Line.SMT_16360 phases=1 bus1=267651.3 bus2= 584251.3 linecode=1_1 length=0.00262 units=km
New Line.SMT_16395 phases=3 bus1=9FR33.1.2.3 bus2= 522571.1.2.3 linecode=10_3 length=0.15021 units=km
New Line.SMT_16396 phases=3 bus1=363971.1.2.3 bus2= 24681.1.2.3 linecode=10_3 length=0.078 units=km
New Line.SMT_16449 phases=3 bus1=614241.1.2.3 bus2= 614251.1.2.3 linecode=10_3 length=0.14053 units=km
New Line.SMT_16474 phases=3 bus1=124061.1.2.3 bus2= 475351.1.2.3 linecode=10_3 length=0.08273 units=km
New Line.SMT_16488 phases=1 bus1=150111.1 bus2= 150121.1 linecode=1_1 length=0.1184 units=km
New Line.SMT_16512 phases=3 bus1=150471.1.2.3 bus2= 111621.1.2.3 linecode=11_3 length=0.10218 units=km
New Line.SMT_16530 phases=3 bus1=110751.1.2.3 bus2= 110761.1.2.3 linecode=13_3 length=0.08204 units=km
New Line.SMT_16532 phases=1 bus1=632091.2 bus2= 632101.2 linecode=1_1 length=0.10255 units=km
New Line.SMT_16533 phases=3 bus1=110761.1.2.3 bus2= 110771.1.2.3 linecode=13_3 length=0.07284 units=km
New Line.SMT_16583 phases=3 bus1=21CF1053.1.2.3 bus2= 620771.1.2.3 linecode=10_3 length=0.03176 units=km
New Line.SMT_16606 phases=1 bus1=632101.2 bus2= 304441.2 linecode=1_1 length=0.1136 units=km
New Line.SMT_16607 phases=1 bus1=304441.2 bus2= 304451.2 linecode=1_1 length=0.09405 units=km
New Line.SMT_16608 phases=1 bus1=304451.2 bus2= 304461.2 linecode=1_1 length=0.1 units=km
New Line.SMT_16609 phases=1 bus1=304461.2 bus2= 304471.2 linecode=1_1 length=0.11337 units=km
New Line.SMT_16610 phases=1 bus1=304471.2 bus2= 562681.2 linecode=1_1 length=0.07801 units=km
New Line.SMT_16615 phases=3 bus1=110741.1.2.3 bus2= 110751.1.2.3 linecode=13_3 length=0.07925 units=km
New Line.SMT_16619 phases=3 bus1=83591.1.2.3 bus2= 83601.1.2.3 linecode=10_3 length=0.08571 units=km
New Line.SMT_16643 phases=3 bus1=110731.1.2.3 bus2= 110741.1.2.3 linecode=13_3 length=0.06507 units=km
New Line.SMT_16646 phases=3 bus1=21CF279.1.2.3 bus2= 431701.1.2.3 linecode=13_3 length=0.15568 units=km
New Line.SMT_16651 phases=1 bus1=37211.2 bus2= 541581.2 linecode=1_1 length=0.12931 units=km
New Line.SMT_16652 phases=1 bus1=541581.2 bus2= 541591.2 linecode=1_1 length=0.1758 units=km
New Line.SMT_16675 phases=1 bus1=143741.3 bus2= 143751.3 linecode=1_1 length=0.12572 units=km
New Line.SMT_16692 phases=3 bus1=617351.1.2.3 bus2= 617361.1.2.3 linecode=10_3 length=0.11643 units=km
New Line.SMT_16715 phases=3 bus1=617361.1.2.3 bus2= 617381.1.2.3 linecode=10_3 length=0.05162 units=km
New Line.SMT_16742 phases=3 bus1=617391.1.2.3 bus2= 617401.1.2.3 linecode=10_3 length=0.10424 units=km
New Line.SMT_16743 phases=1 bus1=629521.1 bus2= 629531.1 linecode=1_1 length=0.05508 units=km
New Line.SMT_16744 phases=1 bus1=629531.1 bus2= 629551.1 linecode=1_1 length=0.05412 units=km
New Line.SMT_16757 phases=3 bus1=617381.1.2.3 bus2= 617391.1.2.3 linecode=10_3 length=0.0892 units=km
New Line.SMT_16766 phases=1 bus1=562001.1 bus2= 562031.1 linecode=1_1 length=0.20872 units=km
New Line.SMT_16767 phases=3 bus1=614221.1.2.3 bus2= 614231.1.2.3 linecode=10_3 length=0.157 units=km
New Line.SMT_16782 phases=3 bus1=150541.1.2.3 bus2= 134221.1.2.3 linecode=28_3 length=0.15278 units=km
New Line.SMT_16786 phases=3 bus1=614231.1.2.3 bus2= 614241.1.2.3 linecode=10_3 length=0.068 units=km
New Line.SMT_16789 phases=3 bus1=147131.1.2.3 bus2= 147141.1.2.3 linecode=13_3 length=0.09356 units=km
New Line.SMT_16790 phases=3 bus1=624671.1.2.3 bus2= 562081.1.2.3 linecode=10_3 length=0.07206 units=km
New Line.SMT_16797 phases=3 bus1=147141.1.2.3 bus2= 147151.1.2.3 linecode=13_3 length=0.12675 units=km
New Line.SMT_16799 phases=3 bus1=147151.1.2.3 bus2= 147161.1.2.3 linecode=13_3 length=0.08215 units=km
New Line.SMT_16825 phases=1 bus1=38631.2 bus2= 981.2 linecode=1_1 length=0.08322 units=km
New Line.SMT_16826 phases=1 bus1=981.2 bus2= 1001.2 linecode=1_1 length=0.08544 units=km
New Line.SMT_16845 phases=3 bus1=19421.1.2.3 bus2= 19431.1.2.3 linecode=10_3 length=0.09124 units=km
New Line.SMT_16847 phases=3 bus1=39691.1.2.3 bus2= 477431.1.2.3 linecode=10_3 length=0.08927 units=km
New Line.SMT_16959 phases=3 bus1=19441.1.2.3 bus2= 19451.1.2.3 linecode=10_3 length=0.09335 units=km
New Line.SMT_16960 phases=3 bus1=19451.1.2.3 bus2= 20131.1.2.3 linecode=10_3 length=0.11034 units=km
New Line.SMT_16977 phases=1 bus1=562681.2 bus2= 562701.2 linecode=1_1 length=0.099 units=km
New Line.SMT_1702 phases=1 bus1=27201.2 bus2= 584061.2 linecode=1_1 length=0.00203 units=km
New Line.SMT_17046 phases=3 bus1=361981.1.2.3 bus2= 496091.1.2.3 linecode=28_3 length=0.09487 units=km
New Line.SMT_17085 phases=3 bus1=381171.1.2.3 bus2= 129561.1.2.3 linecode=11_3 length=0.38749 units=km
New Line.SMT_17103 phases=3 bus1=3CF1281.1.2.3 bus2= 147131.1.2.3 linecode=13_3 length=0.10263 units=km
New Line.SMT_17125 phases=1 bus1=138361.1 bus2= 138371.1 linecode=1_1 length=0.08349 units=km
New Line.SMT_17126 phases=1 bus1=138371.1 bus2= 138381.1 linecode=1_1 length=0.06313 units=km
New Line.SMT_17127 phases=1 bus1=138391.1 bus2= 631741.1 linecode=1_1 length=0.41311 units=km
New Line.SMT_17128 phases=3 bus1=99251.1.2.3 bus2= 26141.1.2.3 linecode=10_3 length=0.00315 units=km
New Line.SMT_17129 phases=3 bus1=118241.1.2.3 bus2= 610531.1.2.3 linecode=10_3 length=0.00266 units=km
New Line.SMT_17141 phases=1 bus1=631741.1 bus2= 750381.1 linecode=1_1 length=0.08585 units=km
New Line.SMT_17166 phases=1 bus1=140221.1 bus2= 140231.1 linecode=1_1 length=0.03795 units=km
New Line.SMT_17167 phases=1 bus1=140241.1 bus2= 140251.1 linecode=1_1 length=0.18981 units=km
New Line.SMT_17168 phases=1 bus1=140251.1 bus2= 140261.1 linecode=1_1 length=0.06 units=km
New Line.SMT_17169 phases=1 bus1=140261.1 bus2= 140271.1 linecode=1_1 length=0.04623 units=km
New Line.SMT_17210 phases=3 bus1=121291.1.2.3 bus2= 609621.1.2.3 linecode=10_3 length=0.00223 units=km
New Line.SMT_17214 phases=1 bus1=29451.3 bus2= 723991.3 linecode=1_1 length=0.10409 units=km
New Line.SMT_17231 phases=3 bus1=39041.1.2.3 bus2= 621451.1.2.3 linecode=10_3 length=0.00949 units=km
New Line.SMT_17236 phases=1 bus1=78171.3 bus2= 78181.3 linecode=1_1 length=0.06748 units=km
New Line.SMT_17288 phases=2 bus1=6951.3.1 bus2= 629301.3.1 linecode=18_2 length=0.00255 units=km
New Line.SMT_17306 phases=1 bus1=22391.2 bus2= 22401.2 linecode=1_1 length=0.06403 units=km
New Line.SMT_17337 phases=1 bus1=13401.3 bus2= 598801.3 linecode=1_1 length=0.00389 units=km
New Line.SMT_17338 phases=1 bus1=1001.2 bus2= 1011.2 linecode=1_1 length=0.08959 units=km
New Line.SMT_17378 phases=1 bus1=137891.1 bus2= 561671.1 linecode=1_1 length=0.04752 units=km
New Line.SMT_17379 phases=1 bus1=267051.2 bus2= 583221.2 linecode=1_1 length=0.16123 units=km
New Line.SMT_17386 phases=3 bus1=601531.1.2.3 bus2= 23861.1.2.3 linecode=28_3 length=0.09356 units=km
New Line.SMT_17389 phases=1 bus1=41371.2 bus2= 587401.2 linecode=1_1 length=0.03661 units=km
New Line.SMT_17395 phases=3 bus1=17671.1.2.3 bus2= 611551.1.2.3 linecode=13_3 length=0.0026 units=km
New Line.SMT_1742 phases=1 bus1=5871.2 bus2= 5881.2 linecode=1_1 length=0.19242 units=km
New Line.SMT_1743 phases=1 bus1=5881.2 bus2= 5891.2 linecode=1_1 length=0.09114 units=km
New Line.SMT_17438 phases=3 bus1=6281.1.2.3 bus2= 585791.1.2.3 linecode=10_3 length=0.00343 units=km
New Line.SMT_1744 phases=3 bus1=544561.1.2.3 bus2= 639091.1.2.3 linecode=10_3 length=0.02927 units=km
New Line.SMT_1745 phases=1 bus1=639091.2 bus2= 474301.2 linecode=1_1 length=0.06912 units=km
New Line.SMT_17451 phases=1 bus1=43711.1 bus2= 43701.1 linecode=1_1 length=0.07094 units=km
New Line.SMT_1746 phases=1 bus1=639091.2 bus2= 28861.2 linecode=1_1 length=0.08602 units=km
New Line.SMT_17462 phases=1 bus1=78151.3 bus2= 78161.3 linecode=1_1 length=0.05331 units=km
New Line.SMT_17463 phases=3 bus1=136971.1.2.3 bus2= 622891.1.2.3 linecode=10_3 length=0.08453 units=km
New Line.SMT_17492 phases=1 bus1=38601.2 bus2= 38611.2 linecode=1_1 length=0.06607 units=km
New Line.SMT_17511 phases=3 bus1=356471.1.2.3 bus2= 611571.1.2.3 linecode=10_3 length=0.00158 units=km
New Line.SMT_17520 phases=1 bus1=123971.3 bus2= 123981.3 linecode=1_1 length=0.15022 units=km
New Line.SMT_17526 phases=1 bus1=131001.1 bus2= 150111.1 linecode=1_1 length=0.14735 units=km
New Line.SMT_17527 phases=2 bus1=21CF669.3.1 bus2= 418811.3.1 linecode=18_2 length=0.0025 units=km