New Line.RBT_1314147 phases=2 bus1=ET13_1372.1.4 bus2=UC1314147.1.4 linecode=50_2 length=0.03 units=km
New Line.RBT_1314148 phases=2 bus1=BT4851.2.4 bus2=UC1314148.2.4 linecode=108_2 length=0.00742 units=km
New Line.RBT_1314099 phases=2 bus1=BT19341.2.4 bus2=UC1314099.2.4 linecode=50_2 length=0.0216 units=km
New Line.RBT_1314100 phases=2 bus1=BT6641.1.4 bus2=UC1314100.1.4 linecode=50_2 length=0.02698 units=km
New Line.RBT_1314101 phases=2 bus1=BT6621.2.4 bus2=UC1314101.2.4 linecode=108_2 length=0.01032 units=km
New Line.RBT_1312628 phases=2 bus1=BT6681.1.4 bus2=UC1312628.1.4 linecode=50_2 length=0.02162 units=km
New Line.RBT_1314136 phases=2 bus1=BT5731.2.4 bus2=UC1314136.2.4 linecode=108_2 length=0.01676 units=km
New Line.RBT_1314137 phases=3 bus1=BT5721.1.2.4 bus2=UC1314137.1.2.4 linecode=83_3 length=0.02488 units=km
New Line.RBT_1314138 phases=3 bus1=BT5771.1.2.4 bus2=UC1314138.1.2.4 linecode=83_3 length=0.01141 units=km
New Line.RBT_1314121 phases=2 bus1=ET13_1775.1.4 bus2=UC1314121.1.4 linecode=50_2 length=0.01652 units=km
New Line.RBT_1331272 phases=2 bus1=ET13_1775.2.4 bus2=UC1331272.2.4 linecode=108_2 length=0.03 units=km
New Line.RBT_1314020 phases=2 bus1=ET13_2236.2.4 bus2=UC1314020.2.4 linecode=50_2 length=0.02786 units=km
New Line.RBT_1320514 phases=2 bus1=ET13_2538.1.4 bus2=UC1320514.1.4 linecode=50_2 length=0.013 units=km
New Line.RBT_1325113 phases=2 bus1=BT370991.2.4 bus2=UC1325113.2.4 linecode=50_2 length=0.025 units=km
New Line.RBT_1335798 phases=4 bus1=ET13_2976.1.2.3.4 bus2=UC1335798.1.2.3.4 linecode=109_4 length=0.029 units=km
New Line.RBT_1314012 phases=4 bus1=ET13_2976.1.2.3.4 bus2=UC1314012.1.2.3.4 linecode=109_4 length=0.025 units=km
New Line.RBT_1314122 phases=2 bus1=BT598631.1.4 bus2=UC1314122.1.4 linecode=50_2 length=0.01765 units=km
New Line.RBT_1320525 phases=2 bus1=BT631741.2.4 bus2=UC1320525.2.4 linecode=50_2 length=0.00839 units=km
New Line.RBT_1335256 phases=2 bus1=BT625081.1.4 bus2=UC1335256.1.4 linecode=50_2 length=0.02098 units=km
New Line.RBT_1337636 phases=2 bus1=BT625081.1.4 bus2=UC1337636.1.4 linecode=105_2 length=0.03 units=km
New Line.RBT_1326329 phases=2 bus1=ET13_3259.2.4 bus2=UC1326329.2.4 linecode=50_2 length=0.02448 units=km
New Line.RBT_1314127 phases=2 bus1=ET13_3259.1.4 bus2=UC1314127.1.4 linecode=50_2 length=0.02421 units=km
New Line.RBT_1317424 phases=2 bus1=BT346771.1.4 bus2=UC1317424.1.4 linecode=105_2 length=0.005 units=km
New Line.RBT_1314032 phases=2 bus1=ET13_3414.2.4 bus2=UC1314032.2.4 linecode=50_2 length=0.02839 units=km
New Line.RBT_1314033 phases=2 bus1=BT36771.1.4 bus2=UC1314033.1.4 linecode=50_2 length=0.01485 units=km
New Line.RBT_1314135 phases=2 bus1=ET13_3648.1.4 bus2=UC1314135.1.4 linecode=50_2 length=0.01976 units=km
New Line.RBT_1327240 phases=2 bus1=BT603171.2.4 bus2=UC1327240.2.4 linecode=50_2 length=0.01606 units=km
New Line.RBT_1327509 phases=2 bus1=ET13_3673.1.4 bus2=UC1327509.1.4 linecode=50_2 length=0.01546 units=km
New Line.RBT_1328947 phases=2 bus1=ET13_3927.1.4 bus2=UC1328947.1.4 linecode=50_2 length=0.00733 units=km
New Line.RBT_1322563 phases=2 bus1=ET13_4014.1.4 bus2=UC1322563.1.4 linecode=50_2 length=0.01041 units=km
New Line.RBT_1318382 phases=2 bus1=ET13_4133.1.4 bus2=UC1318382.1.4 linecode=50_2 length=0.013 units=km
New Line.RBT_1314142 phases=2 bus1=ET13_4284.1.4 bus2=UC1314142.1.4 linecode=108_2 length=0.009 units=km
New Line.RBT_1314139 phases=2 bus1=BT4981.2.4 bus2=UC1314139.2.4 linecode=50_2 length=0.02248 units=km
New Line.RBT_1314140 phases=2 bus1=BT5001.1.4 bus2=UC1314140.1.4 linecode=50_2 length=0.00362 units=km
New Line.RBT_1314141 phases=2 bus1=BT4971.1.4 bus2=UC1314141.1.4 linecode=50_2 length=0.03 units=km
New Line.RBT_1330643 phases=2 bus1=ET13_4318.1.4 bus2=UC1330643.1.4 linecode=105_2 length=0.02108 units=km
New Line.RBT_1331074 phases=3 bus1=ET13_4379.1.2.4 bus2=UC1331074.1.2.4 linecode=83_3 length=0.00949 units=km
New Line.RBT_1320150 phases=3 bus1=ET13_4406.1.2.4 bus2=UC1320150.1.2.4 linecode=83_3 length=0.03 units=km
New Line.RBT_1314017 phases=3 bus1=BT20251.1.2.4 bus2=UC1314017.1.2.4 linecode=83_3 length=0.01737 units=km
New Line.RBT_1314018 phases=3 bus1=BT20261.1.2.4 bus2=UC1314018.1.2.4 linecode=83_3 length=0.03 units=km
New Line.RBT_1331928 phases=2 bus1=BT20251.2.4 bus2=UC1331928.2.4 linecode=50_2 length=0.02995 units=km
New Line.RBT_1333497 phases=2 bus1=ET13_4591.2.4 bus2=UC1333497.2.4 linecode=50_2 length=0.03 units=km
New Line.RBT_1314015 phases=2 bus1=BT20191.1.4 bus2=UC1314015.1.4 linecode=50_2 length=0.00524 units=km
New Line.RBT_1314016 phases=2 bus1=BT20171.1.4 bus2=UC1314016.1.4 linecode=108_2 length=0.01433 units=km
New Line.RBT_1314220 phases=2 bus1=BT778441.1.4 bus2=UC1314220.1.4 linecode=50_2 length=0.01131 units=km
New Line.RBT_1314144 phases=2 bus1=BT22631.2.4 bus2=UC1314144.2.4 linecode=50_2 length=0.00795 units=km
New Line.RBT_1314145 phases=2 bus1=BT715831.1.4 bus2=UC1314145.1.4 linecode=50_2 length=0.01651 units=km
New Line.RBT_1330639 phases=2 bus1=BT4751.1.4 bus2=UC1330639.1.4 linecode=50_2 length=0.03 units=km
New Line.RBT_1320505 phases=2 bus1=BT307131.1.4 bus2=UC1320505.1.4 linecode=50_2 length=0.01802 units=km
New Line.RBT_1314104 phases=2 bus1=ET13_4737.2.4 bus2=UC1314104.2.4 linecode=104_2 length=0.029 units=km
New Line.RBT_1314022 phases=2 bus1=ET13_4861.1.4 bus2=UC1314022.1.4 linecode=50_2 length=0.01462 units=km
New Line.RBT_1333137 phases=2 bus1=ET13_4861.1.4 bus2=UC1333137.1.4 linecode=105_2 length=0.015 units=km
New Line.RBT_1314131 phases=2 bus1=ET13_4939.1.4 bus2=UC1314131.1.4 linecode=50_2 length=0.01351 units=km
New Line.RBT_1332886 phases=2 bus1=ET13_4985.1.4 bus2=UC1332886.1.4 linecode=105_2 length=0.02 units=km
New Line.RBT_1336365 phases=2 bus1=BT765051.1.4 bus2=UC1336365.1.4 linecode=50_2 length=0.0045 units=km
New Line.RBT_1337550 phases=2 bus1=BT765061.1.4 bus2=UC1337550.1.4 linecode=105_2 length=0.015 units=km
New Line.RBT_1337633 phases=2 bus1=ET13_4985.2.4 bus2=UC1337633.2.4 linecode=105_2 length=0.018 units=km
New Line.RBT_1337634 phases=2 bus1=ET13_4985.2.4 bus2=UC1337634.2.4 linecode=105_2 length=0.018 units=km
New Line.RBT_1333500 phases=2 bus1=BT731321.1.4 bus2=UC1333500.1.4 linecode=50_2 length=0.01536 units=km
New Line.RBT_1322700 phases=2 bus1=BT34251.2.4 bus2=UC1322700.2.4 linecode=50_2 length=0.02287 units=km
New Line.RBT_1314026 phases=2 bus1=ET13_5125.2.4 bus2=UC1314026.2.4 linecode=50_2 length=0.01866 units=km
New Line.RBT_1334487 phases=2 bus1=ET13_5418.1.4 bus2=UC1334487.1.4 linecode=50_2 length=0.00648 units=km
New Line.RBT_1335104 phases=2 bus1=ET13_5551.2.4 bus2=UC1335104.2.4 linecode=50_2 length=0.01303 units=km
New Line.RBT_1335799 phases=4 bus1=ET13_5637.1.2.3.4 bus2=UC1335799.1.2.3.4 linecode=109_4 length=0.025 units=km
New Line.RBT_1336087 phases=2 bus1=ET13_5663.1.4 bus2=UC1336087.1.4 linecode=105_2 length=0.005 units=km
New Line.RBT_1335650 phases=2 bus1=ET13_5663.2.4 bus2=UC1335650.2.4 linecode=105_2 length=0.019 units=km
New Line.RBT_1336944 phases=2 bus1=ET13_5663.1.4 bus2=UC1336944.1.4 linecode=105_2 length=0.004 units=km
New Line.RBT_1314098 phases=4 bus1=ET13_5758.1.2.3.4 bus2=UC1314098.1.2.3.4 linecode=51_4 length=0.029 units=km
New Line.RBT_1336552 phases=2 bus1=ET13_5887.1.4 bus2=UC1336552.1.4 linecode=105_2 length=0.03 units=km
New Line.RBT_1338121 phases=2 bus1=ET13_5887.1.4 bus2=UC1338121.1.4 linecode=105_2 length=0.027 units=km
New Line.RBT_1338722 phases=2 bus1=ET13_5888.1.4 bus2=UC1338722.1.4 linecode=105_2 length=0.016 units=km
New Line.RBT_1314107 phases=3 bus1=ET13_5963.1.2.4 bus2=UC1314107.1.2.4 linecode=119_3 length=0.01395 units=km
New Line.RBT_1314110 phases=2 bus1=BT139141.2.4 bus2=UC1314110.2.4 linecode=50_2 length=0.03 units=km
New Line.RBT_317403 phases=2 bus1=ET13_6023.1.4 bus2=UC317403.1.4 linecode=50_2 length=0.02146 units=km
New Line.RBT_1314102 phases=2 bus1=BT371011.2.4 bus2=UC1314102.2.4 linecode=50_2 length=0.009 units=km
New Line.RBT_1337639 phases=3 bus1=ET13_6209.1.2.4 bus2=UC1337639.1.2.4 linecode=83_3 length=0.019 units=km
New Line.RBT_1329808 phases=2 bus1=ET13_6299.2.4 bus2=UC1329808.2.4 linecode=108_2 length=0.01717 units=km
New Line.RBT_1314021 phases=2 bus1=ET13_6299.2.4 bus2=UC1314021.2.4 linecode=108_2 length=0.01756 units=km
New Line.RBT_338231 phases=2 bus1=ET13_6299.2.4 bus2=UC338231.2.4 linecode=50_2 length=0.023 units=km
New Line.RBT_1314237 phases=2 bus1=BT5861.1.4 bus2=UC1314237.1.4 linecode=50_2 length=0.01655 units=km
New Line.RBT_1314134 phases=2 bus1=ET13_6342.2.4 bus2=UC1314134.2.4 linecode=50_2 length=0.01358 units=km
New Line.RBT_1338320 phases=3 bus1=ET13_6342.1.2.4 bus2=UC1338320.1.2.4 linecode=83_3 length=0.022 units=km
New Line.RBT_1338459 phases=4 bus1=BT811801.1.2.3.4 bus2=UC1338459.1.2.3.4 linecode=51_4 length=0.03 units=km
New Line.RBT_1338644 phases=2 bus1=ET13_6345.1.4 bus2=UC1338644.1.4 linecode=105_2 length=0.015 units=km
New Line.RBT_1338313 phases=4 bus1=ET13_6383.1.2.3.4 bus2=UC1338313.1.2.3.4 linecode=51_4 length=0.03 units=km
New Line.RBT_1338784 phases=3 bus1=ET13_6421.1.2.4 bus2=UC1338784.1.2.4 linecode=83_3 length=0.027 units=km
New Line.RBT_1338891 phases=4 bus1=ET13_6459.1.2.3.4 bus2=UC1338891.1.2.3.4 linecode=51_4 length=0.019 units=km
New Line.RBT_1312592 phases=2 bus1=BT381141.1.4 bus2=UC1312592.1.4 linecode=50_2 length=0.00224 units=km
New Line.RBT_312156 phases=2 bus1=BT22561.2.4 bus2=UC312156.2.4 linecode=50_2 length=0.01871 units=km
New Line.RBT_317407 phases=2 bus1=BT381211.2.4 bus2=UC317407.2.4 linecode=50_2 length=0.01615 units=km
New Line.RBT_337540 phases=2 bus1=ET13_799.2.4 bus2=UC337540.2.4 linecode=105_2 length=0.005 units=km
New Line.RBT_1314096 phases=2 bus1=BT19311.2.4 bus2=UC1314096.2.4 linecode=50_2 length=0.01819 units=km
New Line.RBT_1314097 phases=3 bus1=ET13_881.1.2.4 bus2=UC1314097.1.2.4 linecode=119_3 length=0.02694 units=km
New Line.RBT_1314027 phases=3 bus1=BT34071.1.2.4 bus2=UC1314027.1.2.4 linecode=83_3 length=0.025 units=km
New Line.RBT_1913329 phases=2 bus1=BT41361.2.4 bus2=UC1913329.2.4 linecode=50_2 length=0.008 units=km
New Line.RBT_1932209 phases=2 bus1=BT34091.1.4 bus2=UC1932209.1.4 linecode=50_2 length=0.01709 units=km
New Line.RBT_1937131 phases=2 bus1=BT22411.2.4 bus2=UC1937131.2.4 linecode=105_2 length=0.03 units=km
New Line.RBT_1314093 phases=3 bus1=BT138171.1.2.4 bus2=UC1314093.1.2.4 linecode=83_3 length=0.02094 units=km
New Line.RBT_1314094 phases=2 bus1=BT138211.2.4 bus2=UC1314094.2.4 linecode=50_2 length=0.01688 units=km
New Line.RBT_1323673 phases=2 bus1=BT138231.1.4 bus2=UC1323673.1.4 linecode=50_2 length=0.02764 units=km
New Line.RBT_1317420 phases=2 bus1=BT350721.1.4 bus2=UC1317420.1.4 linecode=50_2 length=0.01703 units=km
New Line.RBT_1338892 phases=2 bus1=BT819051.1.4 bus2=UC1338892.1.4 linecode=105_2 length=0.03 units=km
New Line.RBT_1314028 phases=2 bus1=ET13_948.2.4 bus2=UC1314028.2.4 linecode=50_2 length=0.03 units=km
New Line.RBT_1314132 phases=2 bus1=BT34881.1.4 bus2=UC1314132.1.4 linecode=50_2 length=0.01728 units=km
New Line.RBT_1322550 phases=2 bus1=BT34901.2.4 bus2=UC1322550.2.4 linecode=50_2 length=0.00926 units=km
New Line.RBT_1331071 phases=2 bus1=BT350751.1.4 bus2=UC1331071.1.4 linecode=50_2 length=0.02563 units=km
New Line.RBT_1336559 phases=2 bus1=BT370341.1.4 bus2=UC1336559.1.4 linecode=105_2 length=0.015 units=km
New Line.RBT_1314129 phases=2 bus1=BT34981.2.4 bus2=UC1314129.2.4 linecode=50_2 length=0.02629 units=km
New Line.RBT_1314130 phases=2 bus1=BT34971.1.4 bus2=UC1314130.1.4 linecode=50_2 length=0.01262 units=km
New Line.RBT_1314125 phases=2 bus1=ET13_950.1.4 bus2=UC1314125.1.4 linecode=50_2 length=0.01607 units=km
New Line.RBT_1314126 phases=2 bus1=BT17281.2.4 bus2=UC1314126.2.4 linecode=108_2 length=0.01158 units=km
New Line.RBT_1322231 phases=2 bus1=BT361361.1.4 bus2=UC1322231.1.4 linecode=50_2 length=0.02863 units=km
New Line.RBT_1322815 phases=2 bus1=BT34971.2.4 bus2=UC1322815.2.4 linecode=50_2 length=0.02239 units=km
New Line.RBT_1317418 phases=2 bus1=BT370341.1.4 bus2=UC1317418.1.4 linecode=50_2 length=0.011 units=km
New Line.RBT_1312682 phases=2 bus1=BT361361.1.4 bus2=UC1312682.1.4 linecode=50_2 length=0.02027 units=km
New Line.RBT_1314035 phases=2 bus1=BT39381.1.4 bus2=UC1314035.1.4 linecode=50_2 length=0.0276 units=km
New Line.RBT_1326747 phases=2 bus1=ET13_952.2.4 bus2=UC1326747.2.4 linecode=50_2 length=0.03 units=km
New Line.RBT_1314108 phases=2 bus1=BT139101.2.4 bus2=UC1314108.2.4 linecode=50_2 length=0.01156 units=km
New Line.RBT_1314109 phases=2 bus1=BT139171.1.4 bus2=UC1314109.1.4 linecode=50_2 length=0.01964 units=km
New Line.RBT_1314117 phases=3 bus1=ET13_986.1.2.4 bus2=UC1314117.1.2.4 linecode=83_3 length=0.01885 units=km
New Line.RBT_1314113 phases=2 bus1=BT121751.1.4 bus2=UC1314113.1.4 linecode=50_2 length=0.00747 units=km
New Line.RBT_1314114 phases=2 bus1=ET13_987.2.4 bus2=UC1314114.2.4 linecode=50_2 length=0.03 units=km
New Line.RBT_1330644 phases=2 bus1=BT38871.1.4 bus2=UC1330644.1.4 linecode=50_2 length=0.02024 units=km
New Line.RBT_1336522 phases=2 bus1=BT121731.1.4 bus2=UC1336522.1.4 linecode=105_2 length=0.012 units=km
New Line.RBT_1335035 phases=3 bus1=BT121751.1.2.4 bus2=UC1335035.1.2.4 linecode=110_3 length=0.01672 units=km
New Line.RBT_1314112 phases=3 bus1=BT370461.1.2.4 bus2=UC1314112.1.2.4 linecode=83_3 length=0.01942 units=km
New Line.RBT_1324824 phases=2 bus1=BT443151.1.4 bus2=UC1324824.1.4 linecode=105_2 length=0.028 units=km
New Line.RBT_1334553 phases=2 bus1=BT117832.1.4 bus2=UC1334553.1.4 linecode=50_2 length=0.01336 units=km
New Line.RBT_1913417 phases=2 bus1=BT36101.1.4 bus2=UC1913417.1.4 linecode=50_2 length=0.01003 units=km
New Line.RBT_1913418 phases=2 bus1=BT36091.1.4 bus2=UC1913418.1.4 linecode=50_2 length=0.01691 units=km
New Line.RBT_1926892 phases=2 bus1=ET19_1058.2.4 bus2=UC1926892.2.4 linecode=50_2 length=0.01535 units=km
New Line.RBT_1913340 phases=2 bus1=BT124362.2.4 bus2=UC1913340.2.4 linecode=50_2 length=0.02405 units=km
New Line.RBT_1913426 phases=2 bus1=BT40231.2.4 bus2=UC1913426.2.4 linecode=50_2 length=0.008 units=km
New Line.RBT_1913430 phases=2 bus1=BT40201.1.4 bus2=UC1913430.1.4 linecode=50_2 length=0.006 units=km
New Line.RBT_1921187 phases=2 bus1=BT40201.1.4 bus2=UC1921187.1.4 linecode=50_2 length=0.014 units=km
New Line.RBT_1930376 phases=2 bus1=BT40191.2.4 bus2=UC1930376.2.4 linecode=105_2 length=0.028 units=km
New Line.RBT_1933555 phases=2 bus1=ET19_1252.2.4 bus2=UC1933555.2.4 linecode=108_2 length=0.01561 units=km
New Line.RBT_1913408 phases=3 bus1=BT8262.1.2.4 bus2=UC1913408.1.2.4 linecode=110_3 length=0.016 units=km
New Line.RBT_1913308 phases=2 bus1=BT22701.1.4 bus2=UC1913308.1.4 linecode=50_2 length=0.03 units=km
New Line.RBT_1913421 phases=2 bus1=BT38611.2.4 bus2=UC1913421.2.4 linecode=50_2 length=0.02221 units=km
New Line.RBT_1913397 phases=3 bus1=BT38591.1.2.4 bus2=UC1913397.1.2.4 linecode=110_3 length=0.00333 units=km
New Line.RBT_1935090 phases=2 bus1=BT343011.1.4 bus2=UC1935090.1.4 linecode=50_2 length=0.01491 units=km
New Line.RBT_1920344 phases=2 bus1=ET19_1341.1.4 bus2=UC1920344.1.4 linecode=108_2 length=0.0118 units=km
New Line.RBT_1931367 phases=2 bus1=ET19_1342.1.4 bus2=UC1931367.1.4 linecode=105_2 length=0.022 units=km
New Line.RBT_1922689 phases=2 bus1=BT476601.1.4 bus2=UC1922689.1.4 linecode=50_2 length=0.01265 units=km
New Line.RBT_1913304 phases=4 bus1=ET19_1393.1.2.3.4 bus2=UC1913304.1.2.3.4 linecode=51_4 length=0.01561 units=km
New Line.RBT_1917627 phases=2 bus1=BT324981.1.4 bus2=UC1917627.1.4 linecode=50_2 length=0.02075 units=km
New Line.RBT_1918025 phases=2 bus1=BT111771.1.4 bus2=UC1918025.1.4 linecode=50_2 length=0.00584 units=km
New Line.RBT_1918774 phases=2 bus1=BT9321.2.4 bus2=UC1918774.2.4 linecode=50_2 length=0.01754 units=km
New Line.RBT_1933560 phases=3 bus1=BT651491.3.1.4 bus2=UC1933560.3.1.4 linecode=83_3 length=0.012 units=km
New Line.RBT_1938591 phases=2 bus1=BT9321.3.4 bus2=UC1938591.3.4 linecode=105_2 length=0.03 units=km
New Line.RBT_1913437 phases=4 bus1=BT9371.1.2.3.4 bus2=UC1913437.1.2.3.4 linecode=51_4 length=0.01888 units=km
New Line.RBT_1920109 phases=2 bus1=ET19_1455.1.4 bus2=UC1920109.1.4 linecode=50_2 length=0.01207 units=km
New Line.RBT_1927403 phases=2 bus1=BT633341.1.4 bus2=UC1927403.1.4 linecode=50_2 length=0.00939 units=km
New Line.RBT_1933979 phases=2 bus1=BT86171.2.4 bus2=UC1933979.2.4 linecode=50_2 length=0.02019 units=km
New Line.RBT_1913293 phases=2 bus1=BT86161.2.4 bus2=UC1913293.2.4 linecode=105_2 length=0.007 units=km
New Line.RBT_1913294 phases=4 bus1=BT105131.1.2.3.4 bus2=UC1913294.1.2.3.4 linecode=51_4 length=0.01485 units=km
New Line.RBT_1911937 phases=2 bus1=BT86171.2.4 bus2=UC1911937.2.4 linecode=108_2 length=0.01749 units=km
New Line.RBT_1913130 phases=4 bus1=BT9151.1.2.3.4 bus2=UC1913130.1.2.3.4 linecode=51_4 length=0.01964 units=km
New Line.RBT_1913131 phases=2 bus1=BT9161.2.4 bus2=UC1913131.2.4 linecode=50_2 length=0.00817 units=km
New Line.RBT_1913132 phases=4 bus1=ET19_146.1.2.3.4 bus2=UC1913132.1.2.3.4 linecode=51_4 length=0.02211 units=km
New Line.RBT_1913229 phases=4 bus1=BT9201.1.2.3.4 bus2=UC1913229.1.2.3.4 linecode=51_4 length=0.02481 units=km
New Line.RBT_1929863 phases=4 bus1=BT9151.1.2.3.4 bus2=UC1929863.1.2.3.4 linecode=51_4 length=0.012 units=km
New Line.RBT_1938595 phases=4 bus1=BT9171.1.2.3.4 bus2=UC1938595.1.2.3.4 linecode=51_4 length=0.008 units=km
New Line.RBT_1929900 phases=2 bus1=BT66661.1.4 bus2=UC1929900.1.4 linecode=108_2 length=0.026 units=km
New Line.RBT_1918761 phases=2 bus1=BT66671.2.4 bus2=UC1918761.2.4 linecode=108_2 length=0.0258 units=km
New Line.RBT_1913119 phases=4 bus1=BT65821.1.2.3.4 bus2=UC1913119.1.2.3.4 linecode=51_4 length=0.00945 units=km
New Line.RBT_1913121 phases=2 bus1=BT66671.2.4 bus2=UC1913121.2.4 linecode=50_2 length=0.01304 units=km
New Line.RBT_1913122 phases=2 bus1=BT66681.2.4 bus2=UC1913122.2.4 linecode=108_2 length=0.0248 units=km
New Line.RBT_1913123 phases=2 bus1=BT66691.3.4 bus2=UC1913123.3.4 linecode=50_2 length=0.01535 units=km
New Line.RBT_1913124 phases=2 bus1=BT66701.1.4 bus2=UC1913124.1.4 linecode=108_2 length=0.02025 units=km
New Line.RBT_1913377 phases=2 bus1=ET19_1512.2.4 bus2=UC1913377.2.4 linecode=50_2 length=0.00565 units=km
New Line.RBT_921425 phases=2 bus1=BT427231.1.4 bus2=UC921425.1.4 linecode=50_2 length=0.01896 units=km
New Line.RBT_1913264 phases=2 bus1=BT132601.1.4 bus2=UC1913264.1.4 linecode=50_2 length=0.03 units=km
New Line.RBT_1913265 phases=2 bus1=BT132631.2.4 bus2=UC1913265.2.4 linecode=108_2 length=0.007 units=km
New Line.RBT_1913266 phases=2 bus1=BT132641.2.4 bus2=UC1913266.2.4 linecode=105_2 length=0.02 units=km
New Line.RBT_1913267 phases=2 bus1=BT669161.1.4 bus2=UC1913267.1.4 linecode=108_2 length=0.006 units=km
New Line.RBT_1913269 phases=2 bus1=BT132621.1.4 bus2=UC1913269.1.4 linecode=50_2 length=0.006 units=km
New Line.RBT_1913257 phases=4 bus1=ET19_1875.1.2.3.4 bus2=UC1913257.1.2.3.4 linecode=51_4 length=0.02595 units=km
New Line.RBT_1913258 phases=4 bus1=BT110631.1.2.3.4 bus2=UC1913258.1.2.3.4 linecode=51_4 length=0.02264 units=km
New Line.RBT_1937947 phases=2 bus1=ET19_1875.2.4 bus2=UC1937947.2.4 linecode=105_2 length=0.015 units=km
New Line.RBT_1937209 phases=4 bus1=BT794391.1.2.3.4 bus2=UC1937209.1.2.3.4 linecode=51_4 length=0.02 units=km
New Line.RBT_1918004 phases=2 bus1=BT41261.2.4 bus2=UC1918004.2.4 linecode=50_2 length=0.003 units=km
New Line.RBT_1914386 phases=3 bus1=ET19_1899.1.2.4 bus2=UC1914386.1.2.4 linecode=83_3 length=0.016 units=km
New Line.RBT_1914174 phases=2 bus1=BT41261.2.4 bus2=UC1914174.2.4 linecode=50_2 length=0.012 units=km
New Line.RBT_1914175 phases=2 bus1=BT1091.2.4 bus2=UC1914175.2.4 linecode=108_2 length=0.014 units=km
New Line.RBT_1918009 phases=2 bus1=BT370431.1.4 bus2=UC1918009.1.4 linecode=50_2 length=0.0239 units=km
New Line.RBT_1918783 phases=2 bus1=BT324771.1.4 bus2=UC1918783.1.4 linecode=50_2 length=0.0115 units=km
New Line.RBT_1936850 phases=2 bus1=BT1091.1.4 bus2=UC1936850.1.4 linecode=105_2 length=0.015 units=km
New Line.RBT_1913370 phases=2 bus1=BT18851.1.4 bus2=UC1913370.1.4 linecode=50_2 length=0.01635 units=km
New Line.RBT_1921414 phases=4 bus1=ET19_2091.1.2.3.4 bus2=UC1921414.1.2.3.4 linecode=51_4 length=0.022 units=km
New Line.RBT_1920077 phases=2 bus1=BT350801.1.4 bus2=UC1920077.1.4 linecode=50_2 length=0.01156 units=km
New Line.RBT_1920078 phases=2 bus1=BT350871.1.4 bus2=UC1920078.1.4 linecode=50_2 length=0.0177 units=km
New Line.RBT_1920688 phases=2 bus1=ET19_2092.2.4 bus2=UC1920688.2.4 linecode=50_2 length=0.01587 units=km
New Line.RBT_1933724 phases=2 bus1=BT350861.1.4 bus2=UC1933724.1.4 linecode=105_2 length=0.024 units=km
New Line.RBT_1914397 phases=3 bus1=ET19_2092.1.2.4 bus2=UC1914397.1.2.4 linecode=110_3 length=0.01 units=km
New Line.RBT_1913492 phases=2 bus1=BT295271.1.4 bus2=UC1913492.1.4 linecode=108_2 length=0.00829 units=km
New Line.RBT_1913496 phases=2 bus1=BT343071.2.4 bus2=UC1913496.2.4 linecode=50_2 length=0.01804 units=km
New Line.RBT_1913497 phases=2 bus1=BT343051.1.4 bus2=UC1913497.1.4 linecode=50_2 length=0.01447 units=km
New Line.RBT_1933729 phases=2 bus1=BT318622.1.4 bus2=UC1933729.1.4 linecode=50_2 length=0.02029 units=km
New Line.RBT_1933730 phases=2 bus1=ET19_2098.2.4 bus2=UC1933730.2.4 linecode=50_2 length=0.03 units=km
New Line.RBT_1931830 phases=2 bus1=BT318641.1.4 bus2=UC1931830.1.4 linecode=105_2 length=0.027 units=km
New Line.RBT_1917618 phases=2 bus1=BT318622.2.4 bus2=UC1917618.2.4 linecode=50_2 length=0.01229 units=km
New Line.RBT_1917622 phases=2 bus1=BT352161.2.4 bus2=UC1917622.2.4 linecode=50_2 length=0.01982 units=km
New Line.RBT_1917630 phases=2 bus1=BT352191.2.4 bus2=UC1917630.2.4 linecode=108_2 length=0.022 units=km
New Line.RBT_1918759 phases=2 bus1=BT371861.1.4 bus2=UC1918759.1.4 linecode=108_2 length=0.011 units=km
New Line.RBT_1918797 phases=2 bus1=BT350811.2.4 bus2=UC1918797.2.4 linecode=50_2 length=0.0162 units=km
New Line.RBT_1929504 phases=2 bus1=BT371871.2.4 bus2=UC1929504.2.4 linecode=105_2 length=0.018 units=km
New Line.RBT_1913485 phases=2 bus1=BT350841.1.4 bus2=UC1913485.1.4 linecode=50_2 length=0.01677 units=km
New Line.RBT_1917623 phases=2 bus1=ET19_2116.2.4 bus2=UC1917623.2.4 linecode=108_2 length=0.01352 units=km
New Line.RBT_1936709 phases=2 bus1=BT370421.2.4 bus2=UC1936709.2.4 linecode=105_2 length=0.014 units=km
New Line.RBT_1913413 phases=2 bus1=ET19_2117.2.4 bus2=UC1913413.2.4 linecode=50_2 length=0.03 units=km
New Line.RBT_1917631 phases=4 bus1=ET19_2130.1.2.3.4 bus2=UC1917631.1.2.3.4 linecode=109_4 length=0.02 units=km
New Line.RBT_1913289 phases=2 bus1=BT76221.1.4 bus2=UC1913289.1.4 linecode=50_2 length=0.01883 units=km
New Line.RBT_312595 phases=2 bus1=ET19_2261.1.4 bus2=UC312595.1.4 linecode=50_2 length=0.01 units=km
New Line.RBT_1913272 phases=4 bus1=ET19_2413.1.2.3.4 bus2=UC1913272.1.2.3.4 linecode=51_4 length=0.01808 units=km
New Line.RBT_1936602 phases=4 bus1=BT691231.1.2.3.4 bus2=UC1936602.1.2.3.4 linecode=51_4 length=0.03 units=km
New Line.RBT_1935143 phases=2 bus1=ET19_2416.2.4 bus2=UC1935143.2.4 linecode=50_2 length=0.02642 units=km
New Line.RBT_1913401 phases=2 bus1=BT38461.1.4 bus2=UC1913401.1.4 linecode=105_2 length=0.017 units=km
New Line.RBT_1913364 phases=4 bus1=ET19_2437.1.2.3.4 bus2=UC1913364.1.2.3.4 linecode=51_4 length=0.01035 units=km
New Line.RBT_1921055 phases=4 bus1=ET19_2568.1.2.3.4 bus2=UC1921055.1.2.3.4 linecode=51_4 length=0.02162 units=km
New Line.RBT_1937205 phases=4 bus1=ET19_2568.1.2.3.4 bus2=UC1937205.1.2.3.4 linecode=51_4 length=0.03 units=km
New Line.RBT_1913378 phases=2 bus1=BT122391.2.4 bus2=UC1913378.2.4 linecode=50_2 length=0.02592 units=km
New Line.RBT_914498 phases=2 bus1=BT134181.1.4 bus2=UC914498.1.4 linecode=50_2 length=0.02266 units=km
New Line.RBT_1921628 phases=2 bus1=BT315411.2.4 bus2=UC1921628.2.4 linecode=50_2 length=0.01432 units=km
New Line.RBT_1920657 phases=2 bus1=BT315401.2.4 bus2=UC1920657.2.4 linecode=50_2 length=0.017 units=km
New Line.RBT_1935503 phases=4 bus1=BT751381.1.2.3.4 bus2=UC1935503.1.2.3.4 linecode=51_4 length=0.023 units=km
New Line.RBT_1913561 phases=2 bus1=ET19_2865.1.4 bus2=UC1913561.1.4 linecode=50_2 length=0.01546 units=km
New Line.RBT_1913277 phases=2 bus1=BT93121.1.4 bus2=UC1913277.1.4 linecode=50_2 length=0.009 units=km
New Line.RBT_1913278 phases=2 bus1=BT93151.1.4 bus2=UC1913278.1.4 linecode=50_2 length=0.009 units=km
New Line.RBT_1913414 phases=2 bus1=ET19_2889.1.4 bus2=UC1913414.1.4 linecode=108_2 length=0.03 units=km
New Line.RBT_1913415 phases=2 bus1=BT18741.1.4 bus2=UC1913415.1.4 linecode=50_2 length=0.0192 units=km
New Line.RBT_1913416 phases=2 bus1=BT18701.2.4 bus2=UC1913416.2.4 linecode=50_2 length=0.01568 units=km
New Line.RBT_1925272 phases=3 bus1=BT574471.1.2.4 bus2=UC1925272.1.2.4 linecode=110_3 length=0.02093 units=km
New Line.RBT_1913440 phases=2 bus1=BT24691.2.4 bus2=UC1913440.2.4 linecode=50_2 length=0.02313 units=km
New Line.RBT_1913441 phases=4 bus1=BT24701.1.2.3.4 bus2=UC1913441.1.2.3.4 linecode=51_4 length=0.0076 units=km
New Line.RBT_1913327 phases=2 bus1=BT312821.1.4 bus2=UC1913327.1.4 linecode=50_2 length=0.008 units=km
New Line.RBT_1937794 phases=2 bus1=BT312821.1.4 bus2=UC1937794.1.4 linecode=50_2 length=0.012 units=km
New Line.RBT_1921967 phases=4 bus1=ET19_2959.1.2.3.4 bus2=UC1921967.1.2.3.4 linecode=51_4 length=0.01394 units=km
New Line.RBT_1913434 phases=4 bus1=ET19_2959.1.2.3.4 bus2=UC1913434.1.2.3.4 linecode=51_4 length=0.01168 units=km
New Line.RBT_1913489 phases=2 bus1=BT991.2.4 bus2=UC1913489.2.4 linecode=105_2 length=0.03 units=km
New Line.RBT_1913396 phases=2 bus1=BT991.2.4 bus2=UC1913396.2.4 linecode=108_2 length=0.01197 units=km
New Line.RBT_1922561 phases=2 bus1=BT981.1.4 bus2=UC1922561.1.4 linecode=50_2 length=0.03 units=km
New Line.RBT_1935281 phases=2 bus1=BT38631.1.4 bus2=UC1935281.1.4 linecode=108_2 length=0.025 units=km
New Line.RBT_1922562 phases=4 bus1=ET19_3016.1.2.3.4 bus2=UC1922562.1.2.3.4 linecode=51_4 length=0.00652 units=km
New Line.RBT_1922675 phases=2 bus1=BT613981.1.4 bus2=UC1922675.1.4 linecode=50_2 length=0.006 units=km
New Line.RBT_1932863 phases=2 bus1=ET19_3107.2.4 bus2=UC1932863.2.4 linecode=50_2 length=0.03 units=km
New Line.RBT_1936879 phases=2 bus1=ET19_3107.2.4 bus2=UC1936879.2.4 linecode=105_2 length=0.027 units=km
New Line.RBT_1937065 phases=3 bus1=BT613971.1.2.4 bus2=UC1937065.1.2.4 linecode=83_3 length=0.023 units=km
New Line.RBT_1923900 phases=4 bus1=ET19_3239.1.2.3.4 bus2=UC1923900.1.2.3.4 linecode=51_4 length=0.01995 units=km
New Line.RBT_1914193 phases=4 bus1=ET19_3240.1.2.3.4 bus2=UC1914193.1.2.3.4 linecode=51_4 length=0.01387 units=km
New Line.RBT_1924339 phases=4 bus1=ET19_3273.1.2.3.4 bus2=UC1924339.1.2.3.4 linecode=51_4 length=0.00161 units=km
New Line.RBT_1913305 phases=3 bus1=ET19_3424.1.2.4 bus2=UC1913305.1.2.4 linecode=83_3 length=0.02045 units=km
New Line.RBT_1926534 phases=2 bus1=BT582311.1.4 bus2=UC1926534.1.4 linecode=105_2 length=0.009 units=km
New Line.RBT_1933178 phases=2 bus1=BT582311.1.4 bus2=UC1933178.1.4 linecode=50_2 length=0.02008 units=km
New Line.RBT_1926523 phases=2 bus1=ET19_3481.2.4 bus2=UC1926523.2.4 linecode=50_2 length=0.01963 units=km
New Line.RBT_1926524 phases=2 bus1=BT584131.1.4 bus2=UC1926524.1.4 linecode=50_2 length=0.03 units=km
New Line.RBT_926248 phases=2 bus1=BT625851.1.4 bus2=UC926248.1.4 linecode=50_2 length=0.01091 units=km
New Line.RBT_1929260 phases=2 bus1=ET19_3512.1.4 bus2=UC1929260.1.4 linecode=50_2 length=0.0294 units=km
New Line.RBT_1926883 phases=4 bus1=ET19_3597.1.2.3.4 bus2=UC1926883.1.2.3.4 linecode=51_4 length=0.01032 units=km
New Line.RBT_1927392 phases=2 bus1=ET19_3656.1.4 bus2=UC1927392.1.4 linecode=50_2 length=0.00475 units=km
New Line.RBT_1936848 phases=2 bus1=ET19_3656.2.4 bus2=UC1936848.2.4 linecode=105_2 length=0.03 units=km
New Line.RBT_1927389 phases=2 bus1=ET19_3661.1.4 bus2=UC1927389.1.4 linecode=50_2 length=0.00547 units=km
New Line.RBT_1927391 phases=2 bus1=BT474271.2.4 bus2=UC1927391.2.4 linecode=50_2 length=0.01083 units=km
New Line.RBT_1913335 phases=2 bus1=BT41111.1.4 bus2=UC1913335.1.4 linecode=50_2 length=0.00653 units=km
New Line.RBT_1913336 phases=2 bus1=BT41111.2.4 bus2=UC1913336.2.4 linecode=50_2 length=0.00863 units=km
New Line.RBT_1913274 phases=4 bus1=ET19_373.1.2.3.4 bus2=UC1913274.1.2.3.4 linecode=51_4 length=0.02141 units=km
New Line.RBT_1938379 phases=4 bus1=BT811581.1.2.3.4 bus2=UC1938379.1.2.3.4 linecode=51_4 length=0.03 units=km
New Line.RBT_1936847 phases=2 bus1=BT150251.3.4 bus2=UC1936847.3.4 linecode=105_2 length=0.03 units=km
New Line.RBT_1924317 phases=2 bus1=BT29311.1.4 bus2=UC1924317.1.4 linecode=50_2 length=0.02179 units=km
New Line.RBT_1923879 phases=4 bus1=BT150311.1.2.3.4 bus2=UC1923879.1.2.3.4 linecode=51_4 length=0.021 units=km
New Line.RBT_1918718 phases=4 bus1=BT150311.1.2.3.4 bus2=UC1918718.1.2.3.4 linecode=51_4 length=0.01 units=km
New Line.RBT_1929501 phases=4 bus1=BT633591.1.2.3.4 bus2=UC1929501.1.2.3.4 linecode=51_4 length=0.017 units=km
New Line.RBT_1913231 phases=2 bus1=BT150281.1.4 bus2=UC1913231.1.4 linecode=50_2 length=0.009 units=km
New Line.RBT_1913473 phases=4 bus1=BT29281.1.2.3.4 bus2=UC1913473.1.2.3.4 linecode=51_4 length=0.008 units=km
New Line.RBT_1913233 phases=2 bus1=BT150261.2.4 bus2=UC1913233.2.4 linecode=50_2 length=0.013 units=km
New Line.RBT_1913234 phases=4 bus1=BT29311.1.2.3.4 bus2=UC1913234.1.2.3.4 linecode=51_4 length=0.013 units=km
New Line.RBT_1913236 phases=4 bus1=BT29301.1.2.3.4 bus2=UC1913236.1.2.3.4 linecode=51_4 length=0.019 units=km
New Line.RBT_1914396 phases=2 bus1=ET19_3750.1.4 bus2=UC1914396.1.4 linecode=105_2 length=0.01 units=km
New Line.RBT_1924869 phases=2 bus1=ET19_3750.2.4 bus2=UC1924869.2.4 linecode=50_2 length=0.02288 units=km
New Line.RBT_1925259 phases=2 bus1=BT76901.3.4 bus2=UC1925259.3.4 linecode=50_2 length=0.015 units=km
New Line.RBT_1937467 phases=4 bus1=BT797671.1.2.3.4 bus2=UC1937467.1.2.3.4 linecode=51_4 length=0.03 units=km
New Line.RBT_1913241 phases=4 bus1=BT76921.1.2.3.4 bus2=UC1913241.1.2.3.4 linecode=51_4 length=0.013 units=km