New Load.MT_1913410_M1 bus1=778931.1.2.3.4 phases=3 conn=Delta model=2 kv=23.1 kw=25.142043 pf=0.92 daily=MT5_DU status=variable vmaxpu=1.5 vminpu=0.93
New Load.MT_1913410_M2 bus1=778931.1.2.3.4 phases=3 conn=Delta model=3 kv=23.1 kw=25.142043 pf=0.92 daily=MT5_DU status=variable vmaxpu=1.5 vminpu=0.93
New Load.MT_1920105_M1 bus1=812561.1.2.3.4 phases=3 conn=Delta model=2 kv=23.1 kw=17.8081855 pf=0.92 daily=MT1_DU status=variable vmaxpu=1.5 vminpu=0.93
New Load.MT_1920105_M2 bus1=812561.1.2.3.4 phases=3 conn=Delta model=3 kv=23.1 kw=17.8081855 pf=0.92 daily=MT1_DU status=variable vmaxpu=1.5 vminpu=0.93
New Load.MT_1926533_M1 bus1=242161.1.2.3.4 phases=3 conn=Delta model=2 kv=23.1 kw=11.451028 pf=0.92 daily=MT6_DU status=variable vmaxpu=1.5 vminpu=0.93
New Load.MT_1926533_M2 bus1=242161.1.2.3.4 phases=3 conn=Delta model=3 kv=23.1 kw=11.451028 pf=0.92 daily=MT6_DU status=variable vmaxpu=1.5 vminpu=0.93
New Load.MT_1933558_M1 bus1=814791.1.2.3.4 phases=3 conn=Delta model=2 kv=23.1 kw=8.0407185 pf=0.92 daily=MT4_DU status=variable vmaxpu=1.5 vminpu=0.93
New Load.MT_1933558_M2 bus1=814791.1.2.3.4 phases=3 conn=Delta model=3 kv=23.1 kw=8.0407185 pf=0.92 daily=MT4_DU status=variable vmaxpu=1.5 vminpu=0.93
New Load.MT_1936724_M1 bus1=774671.1.2.3.4 phases=3 conn=Delta model=2 kv=23.1 kw=16.0108145 pf=0.92 daily=MT6_DU status=variable vmaxpu=1.5 vminpu=0.93
New Load.MT_1936724_M2 bus1=774671.1.2.3.4 phases=3 conn=Delta model=3 kv=23.1 kw=16.0108145 pf=0.92 daily=MT6_DU status=variable vmaxpu=1.5 vminpu=0.93
New Load.MT_1936813_M1 bus1=774701.1.2.3.4 phases=3 conn=Delta model=2 kv=23.1 kw=15.2577155 pf=0.92 daily=MT5_DU status=variable vmaxpu=1.5 vminpu=0.93
New Load.MT_1936813_M2 bus1=774701.1.2.3.4 phases=3 conn=Delta model=3 kv=23.1 kw=15.2577155 pf=0.92 daily=MT5_DU status=variable vmaxpu=1.5 vminpu=0.93
New Load.MT_1937948_M1 bus1=794811.1.2.3.4 phases=3 conn=Delta model=2 kv=23.1 kw=22.073179 pf=0.92 daily=MT2_DU status=variable vmaxpu=1.5 vminpu=0.93
New Load.MT_1937948_M2 bus1=794811.1.2.3.4 phases=3 conn=Delta model=3 kv=23.1 kw=22.073179 pf=0.92 daily=MT2_DU status=variable vmaxpu=1.5 vminpu=0.93
New Load.MT_2129625_M1 bus1=806511.1.2.3.4 phases=3 conn=Delta model=2 kv=23.1 kw=8.3865105 pf=0.92 daily=MT6_DU status=variable vmaxpu=1.5 vminpu=0.93
New Load.MT_2129625_M2 bus1=806511.1.2.3.4 phases=3 conn=Delta model=3 kv=23.1 kw=8.3865105 pf=0.92 daily=MT6_DU status=variable vmaxpu=1.5 vminpu=0.93
New Load.MT_3336818_M1 bus1=796161.1.2.3.4 phases=3 conn=Delta model=2 kv=23.1 kw=92.3425125 pf=0.92 daily=MT5_DU status=variable vmaxpu=1.5 vminpu=0.93
New Load.MT_3336818_M2 bus1=796161.1.2.3.4 phases=3 conn=Delta model=3 kv=23.1 kw=92.3425125 pf=0.92 daily=MT5_DU status=variable vmaxpu=1.5 vminpu=0.93
New Load.MT_3337463_M1 bus1=791761.1.2.3.4 phases=3 conn=Delta model=2 kv=23.1 kw=9.364271 pf=0.92 daily=MT3_DU status=variable vmaxpu=1.5 vminpu=0.93
New Load.MT_3337463_M2 bus1=791761.1.2.3.4 phases=3 conn=Delta model=3 kv=23.1 kw=9.364271 pf=0.92 daily=MT3_DU status=variable vmaxpu=1.5 vminpu=0.93
New Load.MT_925947_M1 bus1=442671.1.2.3.4 phases=3 conn=Delta model=2 kv=23.1 kw=0.656211 pf=0.92 daily=MT1_DU status=variable vmaxpu=1.5 vminpu=0.93
New Load.MT_925947_M2 bus1=442671.1.2.3.4 phases=3 conn=Delta model=3 kv=23.1 kw=0.656211 pf=0.92 daily=MT1_DU status=variable vmaxpu=1.5 vminpu=0.93
New Load.MT_934745_M1 bus1=683681.1.2.3.4 phases=3 conn=Delta model=2 kv=23.1 kw=5.705985 pf=0.92 daily=MT5_DU status=variable vmaxpu=1.5 vminpu=0.93
New Load.MT_934745_M2 bus1=683681.1.2.3.4 phases=3 conn=Delta model=3 kv=23.1 kw=5.705985 pf=0.92 daily=MT5_DU status=variable vmaxpu=1.5 vminpu=0.93
