New Transformer.TRF_1_1211A phases=3 windings=2 buses=[298301.1.2.3 ET1_1211.1.2.3.4] conns=[Delta Wye] kvs=[23.1 0.38] kvas=[112.5 112.5] %loadloss=1.475556 %noloadloss=0.377777
New Reactor.TRF_1_1211A_R phases=1 bus1=ET1_1211.4 R=15 X=0 basefreq=60
New Transformer.TRF_1_1273A phases=3 windings=2 buses=[229791.1.2.3 ET1_1273.1.2.3.4] conns=[Delta Wye] kvs=[23.1 0.38] kvas=[30 30] %loadloss=2.1 %noloadloss=0.533333
New Reactor.TRF_1_1273A_R phases=1 bus1=ET1_1273.4 R=15 X=0 basefreq=60
New Transformer.TRF_1_1300A phases=3 windings=2 buses=[661811.1.2.3 ET1_1300.1.2.3.4] conns=[Delta Wye] kvs=[23.1 0.38] kvas=[45 45] %loadloss=1.866667 %noloadloss=0.477777
New Reactor.TRF_1_1300A_R phases=1 bus1=ET1_1300.4 R=15 X=0 basefreq=60
New Transformer.TRF_1_1338A phases=3 windings=2 buses=[816961.1.2.3 ET1_1338.1.2.3.4] conns=[Delta Wye] kvs=[23.1 0.38] kvas=[45 45] %loadloss=1.866667 %noloadloss=0.477777
New Reactor.TRF_1_1338A_R phases=1 bus1=ET1_1338.4 R=15 X=0 basefreq=60
New Transformer.TRF_1_1520A phases=3 windings=2 buses=[242421.1.2.3 ET1_1520.1.2.3.4] conns=[Delta Wye] kvs=[23.1 0.38] kvas=[112.5 112.5] %loadloss=1.475556 %noloadloss=0.377777
New Reactor.TRF_1_1520A_R phases=1 bus1=ET1_1520.4 R=15 X=0 basefreq=60
New Transformer.TRF_1_1536A phases=3 windings=2 buses=[236591.1.2.3 ET1_1536.1.2.3.4] conns=[Delta Wye] kvs=[23.1 0.38] kvas=[75 75] %loadloss=3.84 %noloadloss=0.966666
New Reactor.TRF_1_1536A_R phases=1 bus1=ET1_1536.4 R=15 X=0 basefreq=60
New Transformer.TRF_1_1575A phases=3 windings=2 buses=[219331.1.2.3 ET1_1575.1.2.3.4] conns=[Delta Wye] kvs=[23.1 0.38] kvas=[112.5 112.5] %loadloss=1.475556 %noloadloss=0.377777
New Reactor.TRF_1_1575A_R phases=1 bus1=ET1_1575.4 R=15 X=0 basefreq=60
New Transformer.TRF_1_1586A phases=3 windings=2 buses=[247001.1.2.3 ET1_1586.1.2.3.4] conns=[Delta Wye] kvs=[23.1 0.38] kvas=[112.5 112.5] %loadloss=1.475556 %noloadloss=0.377777
New Reactor.TRF_1_1586A_R phases=1 bus1=ET1_1586.4 R=15 X=0 basefreq=60
New Transformer.TRF_1_1587A phases=3 windings=2 buses=[282101.1.2.3 ET1_1587.1.2.3.4] conns=[Delta Wye] kvs=[23.1 0.38] kvas=[112.5 112.5] %loadloss=1.475556 %noloadloss=0.377777
New Reactor.TRF_1_1587A_R phases=1 bus1=ET1_1587.4 R=15 X=0 basefreq=60
New Transformer.TRF_1_16A phases=3 windings=2 buses=[200811.1.2.3 ET1_16.1.2.3.4] conns=[Delta Wye] kvs=[23.1 0.38] kvas=[112.5 112.5] %loadloss=1.475556 %noloadloss=0.377777
New Reactor.TRF_1_16A_R phases=1 bus1=ET1_16.4 R=15 X=0 basefreq=60
New Transformer.TRF_1_1613A phases=3 windings=2 buses=[246011.1.2.3 ET1_1613.1.2.3.4] conns=[Delta Wye] kvs=[23.1 0.38] kvas=[112.5 112.5] %loadloss=1.475556 %noloadloss=0.377777
New Reactor.TRF_1_1613A_R phases=1 bus1=ET1_1613.4 R=15 X=0 basefreq=60
New Transformer.TRF_1_1665A phases=3 windings=2 buses=[624491.1.2.3 ET1_1665.1.2.3.4] conns=[Delta Wye] kvs=[23.1 0.38] kvas=[45 45] %loadloss=1.866667 %noloadloss=0.477777
New Reactor.TRF_1_1665A_R phases=1 bus1=ET1_1665.4 R=15 X=0 basefreq=60
New Transformer.TRF_1_1693A phases=3 windings=2 buses=[717911.1.2.3 ET1_1693.1.2.3.4] conns=[Delta Wye] kvs=[23.1 0.38] kvas=[112.5 112.5] %loadloss=1.475556 %noloadloss=0.377777
New Reactor.TRF_1_1693A_R phases=1 bus1=ET1_1693.4 R=15 X=0 basefreq=60
New Transformer.TRF_1_1699A phases=3 windings=2 buses=[259451.1.2.3 ET1_1699.1.2.3.4] conns=[Delta Wye] kvs=[23.1 0.38] kvas=[112.5 112.5] %loadloss=1.475556 %noloadloss=0.377777
New Reactor.TRF_1_1699A_R phases=1 bus1=ET1_1699.4 R=15 X=0 basefreq=60
New Transformer.TRF_1_17A phases=3 windings=2 buses=[246931.1.2.3 ET1_17.1.2.3.4] conns=[Delta Wye] kvs=[23.1 0.38] kvas=[150 150] %loadloss=1.393334 %noloadloss=0.346666
New Reactor.TRF_1_17A_R phases=1 bus1=ET1_17.4 R=15 X=0 basefreq=60
New Transformer.TRF_1_1700A phases=3 windings=2 buses=[245871.1.2.3 ET1_1700.1.2.3.4] conns=[Delta Wye] kvs=[23.1 0.38] kvas=[75 75] %loadloss=3.84 %noloadloss=0.966666
New Reactor.TRF_1_1700A_R phases=1 bus1=ET1_1700.4 R=15 X=0 basefreq=60
New Transformer.TRF_1_1728A phases=1 windings=3 buses=[MRT_260421TRF_1_1728A.2 ET1_1728.1.4 ET1_1728.4.2] conns=[Wye Wye Wye] kvs=[13.3367912182804 0.22 0.22] kvas=[10 10 10] %loadloss=1.95 %noloadloss=0.5
New Linecode.LC_MRT_TRF_1_1728A_1 nphases=1 basefreq=60 r1=15000 x1=0 units=km normamps=0
New Linecode.LC_MRT_TRF_1_1728A_2 nphases=2 basefreq=60 r1=15000 x1=0 units=km normamps=0
New Linecode.LC_MRT_TRF_1_1728A_3 nphases=3 basefreq=60 r1=15000 x1=0 units=km normamps=0
New Linecode.LC_MRT_TRF_1_1728A_4 nphases=4 basefreq=60 r1=15000 x1=0 units=km normamps=0
New Line.Resist_MTR_TRF_1_1728A phases=1 bus1=260421.2 bus2= MRT_260421TRF_1_1728A.2 linecode=LC_MRT_TRF_1_1728A_1 length=0.001 units=km
New Reactor.TRF_1_1728A_R phases=1 bus1=ET1_1728.4 R=15 X=0 basefreq=60
New Transformer.TRF_1_174A phases=3 windings=2 buses=[289061.1.2.3 ET1_174.1.2.3.4] conns=[Delta Wye] kvs=[23.1 0.38] kvas=[15 15] %loadloss=2.5 %noloadloss=0.633333
New Reactor.TRF_1_174A_R phases=1 bus1=ET1_174.4 R=15 X=0 basefreq=60
New Transformer.TRF_1_1756A phases=3 windings=2 buses=[244101.1.2.3 ET1_1756.1.2.3.4] conns=[Delta Wye] kvs=[23.1 0.38] kvas=[30 30] %loadloss=2.1 %noloadloss=0.533333
New Reactor.TRF_1_1756A_R phases=1 bus1=ET1_1756.4 R=15 X=0 basefreq=60
New Transformer.TRF_1_18A phases=3 windings=2 buses=[282141.1.2.3 ET1_18.1.2.3.4] conns=[Delta Wye] kvs=[23.1 0.38] kvas=[112.5 112.5] %loadloss=1.475556 %noloadloss=0.377777
New Reactor.TRF_1_18A_R phases=1 bus1=ET1_18.4 R=15 X=0 basefreq=60
New Transformer.TRF_1_1822A phases=1 windings=3 buses=[MRT_241651TRF_1_1822A.3 ET1_1822.1.4 ET1_1822.4.2] conns=[Wye Wye Wye] kvs=[13.3367912182804 0.22 0.22] kvas=[37.5 37.5 37.5] %loadloss=1.413333 %noloadloss=0.36
New Linecode.LC_MRT_TRF_1_1822A_1 nphases=1 basefreq=60 r1=15000 x1=0 units=km normamps=0
New Linecode.LC_MRT_TRF_1_1822A_2 nphases=2 basefreq=60 r1=15000 x1=0 units=km normamps=0
New Linecode.LC_MRT_TRF_1_1822A_3 nphases=3 basefreq=60 r1=15000 x1=0 units=km normamps=0
New Linecode.LC_MRT_TRF_1_1822A_4 nphases=4 basefreq=60 r1=15000 x1=0 units=km normamps=0
New Line.Resist_MTR_TRF_1_1822A phases=1 bus1=241651.3 bus2= MRT_241651TRF_1_1822A.3 linecode=LC_MRT_TRF_1_1822A_1 length=0.001 units=km
New Reactor.TRF_1_1822A_R phases=1 bus1=ET1_1822.4 R=15 X=0 basefreq=60
New Transformer.TRF_1_1833A phases=3 windings=2 buses=[297471.1.2.3 ET1_1833.1.2.3.4] conns=[Delta Wye] kvs=[23.1 0.38] kvas=[112.5 112.5] %loadloss=1.475556 %noloadloss=0.377777
New Reactor.TRF_1_1833A_R phases=1 bus1=ET1_1833.4 R=15 X=0 basefreq=60
New Transformer.TRF_1_1967A phases=3 windings=2 buses=[707961.1.2.3 ET1_1967.1.2.3.4] conns=[Delta Wye] kvs=[23.1 0.38] kvas=[75 75] %loadloss=3.84 %noloadloss=0.966666
New Reactor.TRF_1_1967A_R phases=1 bus1=ET1_1967.4 R=15 X=0 basefreq=60
New Transformer.TRF_1_2013A phases=3 windings=2 buses=[275301.1.2.3 ET1_2013.1.2.3.4] conns=[Delta Wye] kvs=[23.1 0.38] kvas=[112.5 112.5] %loadloss=1.475556 %noloadloss=0.377777
New Reactor.TRF_1_2013A_R phases=1 bus1=ET1_2013.4 R=15 X=0 basefreq=60
New Transformer.TRF_1_2044A phases=3 windings=2 buses=[241611.1.2.3 ET1_2044.1.2.3.4] conns=[Delta Wye] kvs=[23.1 0.38] kvas=[30 30] %loadloss=2.1 %noloadloss=0.533333
New Reactor.TRF_1_2044A_R phases=1 bus1=ET1_2044.4 R=15 X=0 basefreq=60
New Transformer.TRF_1_2099A phases=3 windings=2 buses=[259181.1.2.3 ET1_2099.1.2.3.4] conns=[Delta Wye] kvs=[23.1 0.38] kvas=[45 45] %loadloss=1.866667 %noloadloss=0.477777
New Reactor.TRF_1_2099A_R phases=1 bus1=ET1_2099.4 R=15 X=0 basefreq=60
New Transformer.TRF_1_210A phases=3 windings=2 buses=[778561.1.2.3 ET1_210.1.2.3.4] conns=[Delta Wye] kvs=[23.1 0.38] kvas=[15 15] %loadloss=2.5 %noloadloss=0.633333
New Reactor.TRF_1_210A_R phases=1 bus1=ET1_210.4 R=15 X=0 basefreq=60
New Transformer.TRF_1_2115A phases=3 windings=2 buses=[377391.1.2.3 ET1_2115.1.2.3.4] conns=[Delta Wye] kvs=[23.1 0.38] kvas=[112.5 112.5] %loadloss=1.475556 %noloadloss=0.377777
New Reactor.TRF_1_2115A_R phases=1 bus1=ET1_2115.4 R=15 X=0 basefreq=60
New Transformer.TRF_1_2129A phases=3 windings=2 buses=[729841.1.2.3 ET1_2129.1.2.3.4] conns=[Delta Wye] kvs=[23.1 0.38] kvas=[112.5 112.5] %loadloss=1.475556 %noloadloss=0.377777
New Reactor.TRF_1_2129A_R phases=1 bus1=ET1_2129.4 R=15 X=0 basefreq=60
New Transformer.TRF_1_2235A phases=3 windings=2 buses=[381461.1.2.3 ET1_2235.1.2.3.4] conns=[Delta Wye] kvs=[23.1 0.38] kvas=[30 30] %loadloss=2.1 %noloadloss=0.533333
New Reactor.TRF_1_2235A_R phases=1 bus1=ET1_2235.4 R=15 X=0 basefreq=60
New Transformer.TRF_1_2275A phases=1 windings=3 buses=[MRT_253181TRF_1_2275A.3 ET1_2275.1.4 ET1_2275.4.2] conns=[Wye Wye Wye] kvs=[13.3367912182804 0.22 0.22] kvas=[15 15 15] %loadloss=1.766667 %noloadloss=0.433333
New Linecode.LC_MRT_TRF_1_2275A_1 nphases=1 basefreq=60 r1=15000 x1=0 units=km normamps=0
New Linecode.LC_MRT_TRF_1_2275A_2 nphases=2 basefreq=60 r1=15000 x1=0 units=km normamps=0
New Linecode.LC_MRT_TRF_1_2275A_3 nphases=3 basefreq=60 r1=15000 x1=0 units=km normamps=0
New Linecode.LC_MRT_TRF_1_2275A_4 nphases=4 basefreq=60 r1=15000 x1=0 units=km normamps=0
New Line.Resist_MTR_TRF_1_2275A phases=1 bus1=253181.3 bus2= MRT_253181TRF_1_2275A.3 linecode=LC_MRT_TRF_1_2275A_1 length=0.001 units=km
New Reactor.TRF_1_2275A_R phases=1 bus1=ET1_2275.4 R=15 X=0 basefreq=60
New Transformer.TRF_1_2339A phases=3 windings=2 buses=[347281.1.2.3 ET1_2339.1.2.3.4] conns=[Delta Wye] kvs=[23.1 0.38] kvas=[45 45] %loadloss=1.866667 %noloadloss=0.477777
New Reactor.TRF_1_2339A_R phases=1 bus1=ET1_2339.4 R=15 X=0 basefreq=60
New Transformer.TRF_1_2398A phases=3 windings=2 buses=[270351.1.2.3 ET1_2398.1.2.3.4] conns=[Delta Wye] kvs=[23.1 0.38] kvas=[15 15] %loadloss=2.5 %noloadloss=0.633333
New Reactor.TRF_1_2398A_R phases=1 bus1=ET1_2398.4 R=15 X=0 basefreq=60
New Transformer.TRF_1_2418A phases=3 windings=2 buses=[339691.1.2.3 ET1_2418.1.2.3.4] conns=[Delta Wye] kvs=[23.1 0.38] kvas=[45 45] %loadloss=1.866667 %noloadloss=0.477777
New Reactor.TRF_1_2418A_R phases=1 bus1=ET1_2418.4 R=15 X=0 basefreq=60
New Transformer.TRF_1_2469A phases=3 windings=2 buses=[349611.1.2.3 ET1_2469.1.2.3.4] conns=[Delta Wye] kvs=[23.1 0.38] kvas=[112.5 112.5] %loadloss=1.475556 %noloadloss=0.377777
New Reactor.TRF_1_2469A_R phases=1 bus1=ET1_2469.4 R=15 X=0 basefreq=60
New Transformer.TRF_1_2497A phases=3 windings=2 buses=[263321.1.2.3 ET1_2497.1.2.3.4] conns=[Delta Wye] kvs=[23.1 0.38] kvas=[45 45] %loadloss=1.866667 %noloadloss=0.477777
New Reactor.TRF_1_2497A_R phases=1 bus1=ET1_2497.4 R=15 X=0 basefreq=60
New Transformer.TRF_1_2534A phases=1 windings=3 buses=[MRT_326701TRF_1_2534A.2 ET1_2534.1.4 ET1_2534.4.2] conns=[Wye Wye Wye] kvs=[13.3367912182804 0.22 0.22] kvas=[5 5 5] %loadloss=2.1 %noloadloss=0.7
New Linecode.LC_MRT_TRF_1_2534A_1 nphases=1 basefreq=60 r1=15000 x1=0 units=km normamps=0
New Linecode.LC_MRT_TRF_1_2534A_2 nphases=2 basefreq=60 r1=15000 x1=0 units=km normamps=0
New Linecode.LC_MRT_TRF_1_2534A_3 nphases=3 basefreq=60 r1=15000 x1=0 units=km normamps=0
New Linecode.LC_MRT_TRF_1_2534A_4 nphases=4 basefreq=60 r1=15000 x1=0 units=km normamps=0
New Line.Resist_MTR_TRF_1_2534A phases=1 bus1=326701.2 bus2= MRT_326701TRF_1_2534A.2 linecode=LC_MRT_TRF_1_2534A_1 length=0.001 units=km
New Reactor.TRF_1_2534A_R phases=1 bus1=ET1_2534.4 R=15 X=0 basefreq=60
New Transformer.TRF_1_2541A phases=3 windings=2 buses=[295901.1.2.3 ET1_2541.1.2.3.4] conns=[Delta Wye] kvs=[23.1 0.38] kvas=[30 30] %loadloss=2.1 %noloadloss=0.533333
New Reactor.TRF_1_2541A_R phases=1 bus1=ET1_2541.4 R=15 X=0 basefreq=60
New Transformer.TRF_1_2557A phases=1 windings=3 buses=[MRT_243731TRF_1_2557A.3 ET1_2557.1.4 ET1_2557.4.2] conns=[Wye Wye Wye] kvs=[13.3367912182804 0.22 0.22] kvas=[10 10 10] %loadloss=1.95 %noloadloss=0.5
New Linecode.LC_MRT_TRF_1_2557A_1 nphases=1 basefreq=60 r1=15000 x1=0 units=km normamps=0
New Linecode.LC_MRT_TRF_1_2557A_2 nphases=2 basefreq=60 r1=15000 x1=0 units=km normamps=0
New Linecode.LC_MRT_TRF_1_2557A_3 nphases=3 basefreq=60 r1=15000 x1=0 units=km normamps=0
New Linecode.LC_MRT_TRF_1_2557A_4 nphases=4 basefreq=60 r1=15000 x1=0 units=km normamps=0
New Line.Resist_MTR_TRF_1_2557A phases=1 bus1=243731.3 bus2= MRT_243731TRF_1_2557A.3 linecode=LC_MRT_TRF_1_2557A_1 length=0.001 units=km
New Reactor.TRF_1_2557A_R phases=1 bus1=ET1_2557.4 R=15 X=0 basefreq=60
New Transformer.TRF_1_2561A phases=3 windings=2 buses=[343921.1.2.3 ET1_2561.1.2.3.4] conns=[Delta Wye] kvs=[23.1 0.38] kvas=[75 75] %loadloss=3.84 %noloadloss=0.966666
New Reactor.TRF_1_2561A_R phases=1 bus1=ET1_2561.4 R=15 X=0 basefreq=60
New Transformer.TRF_1_2572A phases=3 windings=2 buses=[264891.1.2.3 ET1_2572.1.2.3.4] conns=[Delta Wye] kvs=[23.1 0.38] kvas=[15 15] %loadloss=2.5 %noloadloss=0.633333
New Reactor.TRF_1_2572A_R phases=1 bus1=ET1_2572.4 R=15 X=0 basefreq=60
New Transformer.TRF_1_2592A phases=1 windings=3 buses=[MRT_281591TRF_1_2592A.1 ET1_2592.1.4 ET1_2592.4.2] conns=[Wye Wye Wye] kvs=[13.3367912182804 0.22 0.22] kvas=[10 10 10] %loadloss=1.95 %noloadloss=0.5
New Linecode.LC_MRT_TRF_1_2592A_1 nphases=1 basefreq=60 r1=15000 x1=0 units=km normamps=0
New Linecode.LC_MRT_TRF_1_2592A_2 nphases=2 basefreq=60 r1=15000 x1=0 units=km normamps=0
New Linecode.LC_MRT_TRF_1_2592A_3 nphases=3 basefreq=60 r1=15000 x1=0 units=km normamps=0
New Linecode.LC_MRT_TRF_1_2592A_4 nphases=4 basefreq=60 r1=15000 x1=0 units=km normamps=0
New Line.Resist_MTR_TRF_1_2592A phases=1 bus1=281591.1 bus2= MRT_281591TRF_1_2592A.1 linecode=LC_MRT_TRF_1_2592A_1 length=0.001 units=km
New Reactor.TRF_1_2592A_R phases=1 bus1=ET1_2592.4 R=15 X=0 basefreq=60
New Transformer.TRF_1_273A phases=3 windings=2 buses=[281211.1.2.3 ET1_273.1.2.3.4] conns=[Delta Wye] kvs=[23.1 0.38] kvas=[112.5 112.5] %loadloss=1.475556 %noloadloss=0.377777
New Reactor.TRF_1_273A_R phases=1 bus1=ET1_273.4 R=15 X=0 basefreq=60
New Transformer.TRF_1_2820A phases=3 windings=2 buses=[690771.1.2.3 ET1_2820.1.2.3.4] conns=[Delta Wye] kvs=[23.1 0.38] kvas=[30 30] %loadloss=2.1 %noloadloss=0.533333
New Reactor.TRF_1_2820A_R phases=1 bus1=ET1_2820.4 R=15 X=0 basefreq=60
New Transformer.TRF_1_2830A phases=1 windings=3 buses=[MRT_254281TRF_1_2830A.1 ET1_2830.1.4 ET1_2830.4.2] conns=[Wye Wye Wye] kvs=[13.3367912182804 0.22 0.22] kvas=[15 15 15] %loadloss=1.766667 %noloadloss=0.433333
New Linecode.LC_MRT_TRF_1_2830A_1 nphases=1 basefreq=60 r1=15000 x1=0 units=km normamps=0
New Linecode.LC_MRT_TRF_1_2830A_2 nphases=2 basefreq=60 r1=15000 x1=0 units=km normamps=0
New Linecode.LC_MRT_TRF_1_2830A_3 nphases=3 basefreq=60 r1=15000 x1=0 units=km normamps=0
New Linecode.LC_MRT_TRF_1_2830A_4 nphases=4 basefreq=60 r1=15000 x1=0 units=km normamps=0
New Line.Resist_MTR_TRF_1_2830A phases=1 bus1=254281.1 bus2= MRT_254281TRF_1_2830A.1 linecode=LC_MRT_TRF_1_2830A_1 length=0.001 units=km
New Reactor.TRF_1_2830A_R phases=1 bus1=ET1_2830.4 R=15 X=0 basefreq=60
New Transformer.TRF_1_2863A phases=3 windings=2 buses=[265901.1.2.3 ET1_2863.1.2.3.4] conns=[Delta Wye] kvs=[23.1 0.38] kvas=[30 30] %loadloss=2.1 %noloadloss=0.533333
New Reactor.TRF_1_2863A_R phases=1 bus1=ET1_2863.4 R=15 X=0 basefreq=60
New Transformer.TRF_1_29A phases=3 windings=2 buses=[263431.1.2.3 ET1_29.1.2.3.4] conns=[Delta Wye] kvs=[23.1 0.38] kvas=[112.5 112.5] %loadloss=1.475556 %noloadloss=0.377777
New Reactor.TRF_1_29A_R phases=1 bus1=ET1_29.4 R=15 X=0 basefreq=60
New Transformer.TRF_1_2909A phases=3 windings=2 buses=[372521.1.2.3 ET1_2909.1.2.3.4] conns=[Delta Wye] kvs=[23.1 0.38] kvas=[15 15] %loadloss=2.5 %noloadloss=0.633333
New Reactor.TRF_1_2909A_R phases=1 bus1=ET1_2909.4 R=15 X=0 basefreq=60
New Transformer.TRF_1_2914A phases=1 windings=3 buses=[MRT_291121TRF_1_2914A.3 ET1_2914.1.4 ET1_2914.4.2] conns=[Wye Wye Wye] kvs=[13.3367912182804 0.22 0.22] kvas=[37.5 37.5 37.5] %loadloss=1.413333 %noloadloss=0.36
New Linecode.LC_MRT_TRF_1_2914A_1 nphases=1 basefreq=60 r1=15000 x1=0 units=km normamps=0
New Linecode.LC_MRT_TRF_1_2914A_2 nphases=2 basefreq=60 r1=15000 x1=0 units=km normamps=0
New Linecode.LC_MRT_TRF_1_2914A_3 nphases=3 basefreq=60 r1=15000 x1=0 units=km normamps=0
New Linecode.LC_MRT_TRF_1_2914A_4 nphases=4 basefreq=60 r1=15000 x1=0 units=km normamps=0
New Line.Resist_MTR_TRF_1_2914A phases=1 bus1=291121.3 bus2= MRT_291121TRF_1_2914A.3 linecode=LC_MRT_TRF_1_2914A_1 length=0.001 units=km
New Reactor.TRF_1_2914A_R phases=1 bus1=ET1_2914.4 R=15 X=0 basefreq=60
New Transformer.TRF_1_2973A phases=3 windings=2 buses=[608261.1.2.3 ET1_2973.1.2.3.4] conns=[Delta Wye] kvs=[23.1 0.38] kvas=[45 45] %loadloss=1.866667 %noloadloss=0.477777
New Reactor.TRF_1_2973A_R phases=1 bus1=ET1_2973.4 R=15 X=0 basefreq=60
New Transformer.TRF_1_2974A phases=3 windings=2 buses=[613321.1.2.3 ET1_2974.1.2.3.4] conns=[Delta Wye] kvs=[23.1 0.38] kvas=[112.5 112.5] %loadloss=1.475556 %noloadloss=0.377777
New Reactor.TRF_1_2974A_R phases=1 bus1=ET1_2974.4 R=15 X=0 basefreq=60
New Transformer.TRF_1_2975A phases=3 windings=2 buses=[613251.1.2.3 ET1_2975.1.2.3.4] conns=[Delta Wye] kvs=[23.1 0.38] kvas=[75 75] %loadloss=3.84 %noloadloss=0.966666
New Reactor.TRF_1_2975A_R phases=1 bus1=ET1_2975.4 R=15 X=0 basefreq=60
New Transformer.TRF_1_30A phases=1 windings=3 buses=[MRT_357061TRF_1_30A.1 ET1_30.1.4 ET1_30.4.2] conns=[Wye Wye Wye] kvs=[13.3367912182804 0.22 0.22] kvas=[25 25 25] %loadloss=1.56 %noloadloss=0.36
New Linecode.LC_MRT_TRF_1_30A_1 nphases=1 basefreq=60 r1=15000 x1=0 units=km normamps=0
New Linecode.LC_MRT_TRF_1_30A_2 nphases=2 basefreq=60 r1=15000 x1=0 units=km normamps=0
New Linecode.LC_MRT_TRF_1_30A_3 nphases=3 basefreq=60 r1=15000 x1=0 units=km normamps=0
New Linecode.LC_MRT_TRF_1_30A_4 nphases=4 basefreq=60 r1=15000 x1=0 units=km normamps=0
New Line.Resist_MTR_TRF_1_30A phases=1 bus1=357061.1 bus2= MRT_357061TRF_1_30A.1 linecode=LC_MRT_TRF_1_30A_1 length=0.001 units=km
New Reactor.TRF_1_30A_R phases=1 bus1=ET1_30.4 R=15 X=0 basefreq=60
New Transformer.TRF_1_3069A phases=3 windings=2 buses=[345211.1.2.3 ET1_3069.1.2.3.4] conns=[Delta Wye] kvs=[23.1 0.38] kvas=[30 30] %loadloss=2.1 %noloadloss=0.533333
New Reactor.TRF_1_3069A_R phases=1 bus1=ET1_3069.4 R=15 X=0 basefreq=60
New Transformer.TRF_1_3103A phases=1 windings=3 buses=[MRT_260411TRF_1_3103A.2 ET1_3103.1.4 ET1_3103.4.2] conns=[Wye Wye Wye] kvs=[13.3367912182804 0.22 0.22] kvas=[10 10 10] %loadloss=1.95 %noloadloss=0.5
New Linecode.LC_MRT_TRF_1_3103A_1 nphases=1 basefreq=60 r1=15000 x1=0 units=km normamps=0
New Linecode.LC_MRT_TRF_1_3103A_2 nphases=2 basefreq=60 r1=15000 x1=0 units=km normamps=0
New Linecode.LC_MRT_TRF_1_3103A_3 nphases=3 basefreq=60 r1=15000 x1=0 units=km normamps=0
New Linecode.LC_MRT_TRF_1_3103A_4 nphases=4 basefreq=60 r1=15000 x1=0 units=km normamps=0
New Line.Resist_MTR_TRF_1_3103A phases=1 bus1=260411.2 bus2= MRT_260411TRF_1_3103A.2 linecode=LC_MRT_TRF_1_3103A_1 length=0.001 units=km
New Reactor.TRF_1_3103A_R phases=1 bus1=ET1_3103.4 R=15 X=0 basefreq=60
New Transformer.TRF_1_3291A phases=1 windings=3 buses=[MRT_246471TRF_1_3291A.1 ET1_3291.1.4 ET1_3291.4.2] conns=[Wye Wye Wye] kvs=[13.3367912182804 0.22 0.22] kvas=[10 10 10] %loadloss=1.95 %noloadloss=0.5
New Linecode.LC_MRT_TRF_1_3291A_1 nphases=1 basefreq=60 r1=15000 x1=0 units=km normamps=0
New Linecode.LC_MRT_TRF_1_3291A_2 nphases=2 basefreq=60 r1=15000 x1=0 units=km normamps=0
New Linecode.LC_MRT_TRF_1_3291A_3 nphases=3 basefreq=60 r1=15000 x1=0 units=km normamps=0
New Linecode.LC_MRT_TRF_1_3291A_4 nphases=4 basefreq=60 r1=15000 x1=0 units=km normamps=0
New Line.Resist_MTR_TRF_1_3291A phases=1 bus1=246471.1 bus2= MRT_246471TRF_1_3291A.1 linecode=LC_MRT_TRF_1_3291A_1 length=0.001 units=km
New Reactor.TRF_1_3291A_R phases=1 bus1=ET1_3291.4 R=15 X=0 basefreq=60
New Transformer.TRF_1_3349A phases=3 windings=2 buses=[263061.1.2.3 ET1_3349.1.2.3.4] conns=[Delta Wye] kvs=[23.1 0.38] kvas=[30 30] %loadloss=2.1 %noloadloss=0.533333
New Reactor.TRF_1_3349A_R phases=1 bus1=ET1_3349.4 R=15 X=0 basefreq=60
New Transformer.TRF_1_3423A phases=1 windings=3 buses=[MRT_263841TRF_1_3423A.1 ET1_3423.1.4 ET1_3423.4.2] conns=[Wye Wye Wye] kvs=[13.3367912182804 0.22 0.22] kvas=[10 10 10] %loadloss=1.95 %noloadloss=0.5
New Linecode.LC_MRT_TRF_1_3423A_1 nphases=1 basefreq=60 r1=15000 x1=0 units=km normamps=0
New Linecode.LC_MRT_TRF_1_3423A_2 nphases=2 basefreq=60 r1=15000 x1=0 units=km normamps=0
New Linecode.LC_MRT_TRF_1_3423A_3 nphases=3 basefreq=60 r1=15000 x1=0 units=km normamps=0
New Linecode.LC_MRT_TRF_1_3423A_4 nphases=4 basefreq=60 r1=15000 x1=0 units=km normamps=0
New Line.Resist_MTR_TRF_1_3423A phases=1 bus1=263841.1 bus2= MRT_263841TRF_1_3423A.1 linecode=LC_MRT_TRF_1_3423A_1 length=0.001 units=km
New Reactor.TRF_1_3423A_R phases=1 bus1=ET1_3423.4 R=15 X=0 basefreq=60
New Transformer.TRF_1_3438A phases=3 windings=2 buses=[761601.1.2.3 ET1_3438.1.2.3.4] conns=[Delta Wye] kvs=[23.1 0.38] kvas=[75 75] %loadloss=3.84 %noloadloss=0.966666
New Reactor.TRF_1_3438A_R phases=1 bus1=ET1_3438.4 R=15 X=0 basefreq=60
New Transformer.TRF_1_3603A phases=1 windings=3 buses=[MRT_253151TRF_1_3603A.3 ET1_3603.1.4 ET1_3603.4.2] conns=[Wye Wye Wye] kvs=[13.3367912182804 0.22 0.22] kvas=[10 10 10] %loadloss=1.95 %noloadloss=0.5
New Linecode.LC_MRT_TRF_1_3603A_1 nphases=1 basefreq=60 r1=15000 x1=0 units=km normamps=0
New Linecode.LC_MRT_TRF_1_3603A_2 nphases=2 basefreq=60 r1=15000 x1=0 units=km normamps=0
New Linecode.LC_MRT_TRF_1_3603A_3 nphases=3 basefreq=60 r1=15000 x1=0 units=km normamps=0
New Linecode.LC_MRT_TRF_1_3603A_4 nphases=4 basefreq=60 r1=15000 x1=0 units=km normamps=0
New Line.Resist_MTR_TRF_1_3603A phases=1 bus1=253151.3 bus2= MRT_253151TRF_1_3603A.3 linecode=LC_MRT_TRF_1_3603A_1 length=0.001 units=km
New Reactor.TRF_1_3603A_R phases=1 bus1=ET1_3603.4 R=15 X=0 basefreq=60
New Transformer.TRF_1_3624A phases=3 windings=2 buses=[602451.1.2.3 ET1_3624.1.2.3.4] conns=[Delta Wye] kvs=[23.1 0.38] kvas=[225 225] %loadloss=1.28 %noloadloss=0.322222
New Reactor.TRF_1_3624A_R phases=1 bus1=ET1_3624.4 R=15 X=0 basefreq=60
New Transformer.TRF_1_3664A phases=1 windings=3 buses=[MRT_559781TRF_1_3664A.2 ET1_3664.1.4 ET1_3664.4.2] conns=[Wye Wye Wye] kvs=[13.3367912182804 0.22 0.22] kvas=[10 10 10] %loadloss=1.95 %noloadloss=0.5
New Linecode.LC_MRT_TRF_1_3664A_1 nphases=1 basefreq=60 r1=15000 x1=0 units=km normamps=0
New Linecode.LC_MRT_TRF_1_3664A_2 nphases=2 basefreq=60 r1=15000 x1=0 units=km normamps=0
New Linecode.LC_MRT_TRF_1_3664A_3 nphases=3 basefreq=60 r1=15000 x1=0 units=km normamps=0
New Linecode.LC_MRT_TRF_1_3664A_4 nphases=4 basefreq=60 r1=15000 x1=0 units=km normamps=0
New Line.Resist_MTR_TRF_1_3664A phases=1 bus1=559781.2 bus2= MRT_559781TRF_1_3664A.2 linecode=LC_MRT_TRF_1_3664A_1 length=0.001 units=km
New Reactor.TRF_1_3664A_R phases=1 bus1=ET1_3664.4 R=15 X=0 basefreq=60
New Transformer.TRF_1_3674A phases=3 windings=2 buses=[297281.1.2.3 ET1_3674.1.2.3.4] conns=[Delta Wye] kvs=[23.1 0.38] kvas=[45 45] %loadloss=1.866667 %noloadloss=0.477777
New Reactor.TRF_1_3674A_R phases=1 bus1=ET1_3674.4 R=15 X=0 basefreq=60
New Transformer.TRF_1_3738A phases=3 windings=2 buses=[274621.1.2.3 ET1_3738.1.2.3.4] conns=[Delta Wye] kvs=[23.1 0.38] kvas=[75 75] %loadloss=3.84 %noloadloss=0.966666
New Reactor.TRF_1_3738A_R phases=1 bus1=ET1_3738.4 R=15 X=0 basefreq=60
New Transformer.TRF_1_3748A phases=1 windings=3 buses=[MRT_297251TRF_1_3748A.1 ET1_3748.1.4 ET1_3748.4.2] conns=[Wye Wye Wye] kvs=[13.3367912182804 0.22 0.22] kvas=[15 15 15] %loadloss=1.766667 %noloadloss=0.433333
New Linecode.LC_MRT_TRF_1_3748A_1 nphases=1 basefreq=60 r1=15000 x1=0 units=km normamps=0
New Linecode.LC_MRT_TRF_1_3748A_2 nphases=2 basefreq=60 r1=15000 x1=0 units=km normamps=0
New Linecode.LC_MRT_TRF_1_3748A_3 nphases=3 basefreq=60 r1=15000 x1=0 units=km normamps=0
New Linecode.LC_MRT_TRF_1_3748A_4 nphases=4 basefreq=60 r1=15000 x1=0 units=km normamps=0
New Line.Resist_MTR_TRF_1_3748A phases=1 bus1=297251.1 bus2= MRT_297251TRF_1_3748A.1 linecode=LC_MRT_TRF_1_3748A_1 length=0.001 units=km
New Reactor.TRF_1_3748A_R phases=1 bus1=ET1_3748.4 R=15 X=0 basefreq=60
New Transformer.TRF_1_3802A phases=1 windings=3 buses=[MRT_643011TRF_1_3802A.1 ET1_3802.1.4 ET1_3802.4.2] conns=[Wye Wye Wye] kvs=[13.3367912182804 0.22 0.22] kvas=[15 15 15] %loadloss=1.766667 %noloadloss=0.433333
New Linecode.LC_MRT_TRF_1_3802A_1 nphases=1 basefreq=60 r1=15000 x1=0 units=km normamps=0
New Linecode.LC_MRT_TRF_1_3802A_2 nphases=2 basefreq=60 r1=15000 x1=0 units=km normamps=0
New Linecode.LC_MRT_TRF_1_3802A_3 nphases=3 basefreq=60 r1=15000 x1=0 units=km normamps=0
New Linecode.LC_MRT_TRF_1_3802A_4 nphases=4 basefreq=60 r1=15000 x1=0 units=km normamps=0
New Line.Resist_MTR_TRF_1_3802A phases=1 bus1=643011.1 bus2= MRT_643011TRF_1_3802A.1 linecode=LC_MRT_TRF_1_3802A_1 length=0.001 units=km
New Reactor.TRF_1_3802A_R phases=1 bus1=ET1_3802.4 R=15 X=0 basefreq=60
New Transformer.TRF_1_3853A phases=1 windings=3 buses=[MRT_253111TRF_1_3853A.1 ET1_3853.1.4 ET1_3853.4.2] conns=[Wye Wye Wye] kvs=[13.3367912182804 0.22 0.22] kvas=[10 10 10] %loadloss=1.95 %noloadloss=0.5
New Linecode.LC_MRT_TRF_1_3853A_1 nphases=1 basefreq=60 r1=15000 x1=0 units=km normamps=0
New Linecode.LC_MRT_TRF_1_3853A_2 nphases=2 basefreq=60 r1=15000 x1=0 units=km normamps=0
New Linecode.LC_MRT_TRF_1_3853A_3 nphases=3 basefreq=60 r1=15000 x1=0 units=km normamps=0
New Linecode.LC_MRT_TRF_1_3853A_4 nphases=4 basefreq=60 r1=15000 x1=0 units=km normamps=0
New Line.Resist_MTR_TRF_1_3853A phases=1 bus1=253111.1 bus2= MRT_253111TRF_1_3853A.1 linecode=LC_MRT_TRF_1_3853A_1 length=0.001 units=km
New Reactor.TRF_1_3853A_R phases=1 bus1=ET1_3853.4 R=15 X=0 basefreq=60
New Transformer.TRF_1_3931A phases=1 windings=3 buses=[MRT_648571TRF_1_3931A.3 ET1_3931.1.4 ET1_3931.4.2] conns=[Wye Wye Wye] kvs=[13.3367912182804 0.22 0.22] kvas=[10 10 10] %loadloss=1.95 %noloadloss=0.5
New Linecode.LC_MRT_TRF_1_3931A_1 nphases=1 basefreq=60 r1=15000 x1=0 units=km normamps=0
New Linecode.LC_MRT_TRF_1_3931A_2 nphases=2 basefreq=60 r1=15000 x1=0 units=km normamps=0
New Linecode.LC_MRT_TRF_1_3931A_3 nphases=3 basefreq=60 r1=15000 x1=0 units=km normamps=0
New Linecode.LC_MRT_TRF_1_3931A_4 nphases=4 basefreq=60 r1=15000 x1=0 units=km normamps=0
New Line.Resist_MTR_TRF_1_3931A phases=1 bus1=648571.3 bus2= MRT_648571TRF_1_3931A.3 linecode=LC_MRT_TRF_1_3931A_1 length=0.001 units=km
New Reactor.TRF_1_3931A_R phases=1 bus1=ET1_3931.4 R=15 X=0 basefreq=60
New Transformer.TRF_1_3932A phases=1 windings=3 buses=[MRT_775401TRF_1_3932A.2 ET1_3932.1.4 ET1_3932.4.2] conns=[Wye Wye Wye] kvs=[13.3367912182804 0.22 0.22] kvas=[10 10 10] %loadloss=1.95 %noloadloss=0.5
New Linecode.LC_MRT_TRF_1_3932A_1 nphases=1 basefreq=60 r1=15000 x1=0 units=km normamps=0
New Linecode.LC_MRT_TRF_1_3932A_2 nphases=2 basefreq=60 r1=15000 x1=0 units=km normamps=0
New Linecode.LC_MRT_TRF_1_3932A_3 nphases=3 basefreq=60 r1=15000 x1=0 units=km normamps=0
New Linecode.LC_MRT_TRF_1_3932A_4 nphases=4 basefreq=60 r1=15000 x1=0 units=km normamps=0
New Line.Resist_MTR_TRF_1_3932A phases=1 bus1=775401.2 bus2= MRT_775401TRF_1_3932A.2 linecode=LC_MRT_TRF_1_3932A_1 length=0.001 units=km
New Reactor.TRF_1_3932A_R phases=1 bus1=ET1_3932.4 R=15 X=0 basefreq=60
New Transformer.TRF_1_3936A phases=1 windings=3 buses=[MRT_636931TRF_1_3936A.2 ET1_3936.1.4 ET1_3936.4.2] conns=[Wye Wye Wye] kvs=[13.3367912182804 0.22 0.22] kvas=[15 15 15] %loadloss=1.766667 %noloadloss=0.433333
New Linecode.LC_MRT_TRF_1_3936A_1 nphases=1 basefreq=60 r1=15000 x1=0 units=km normamps=0
New Linecode.LC_MRT_TRF_1_3936A_2 nphases=2 basefreq=60 r1=15000 x1=0 units=km normamps=0
New Linecode.LC_MRT_TRF_1_3936A_3 nphases=3 basefreq=60 r1=15000 x1=0 units=km normamps=0
New Linecode.LC_MRT_TRF_1_3936A_4 nphases=4 basefreq=60 r1=15000 x1=0 units=km normamps=0
New Line.Resist_MTR_TRF_1_3936A phases=1 bus1=636931.2 bus2= MRT_636931TRF_1_3936A.2 linecode=LC_MRT_TRF_1_3936A_1 length=0.001 units=km
New Reactor.TRF_1_3936A_R phases=1 bus1=ET1_3936.4 R=15 X=0 basefreq=60
New Transformer.TRF_1_3950A phases=1 windings=3 buses=[MRT_242861TRF_1_3950A.3 ET1_3950.1.4 ET1_3950.4.2] conns=[Wye Wye Wye] kvs=[13.3367912182804 0.22 0.22] kvas=[10 10 10] %loadloss=1.95 %noloadloss=0.5
New Linecode.LC_MRT_TRF_1_3950A_1 nphases=1 basefreq=60 r1=15000 x1=0 units=km normamps=0
New Linecode.LC_MRT_TRF_1_3950A_2 nphases=2 basefreq=60 r1=15000 x1=0 units=km normamps=0
New Linecode.LC_MRT_TRF_1_3950A_3 nphases=3 basefreq=60 r1=15000 x1=0 units=km normamps=0
New Linecode.LC_MRT_TRF_1_3950A_4 nphases=4 basefreq=60 r1=15000 x1=0 units=km normamps=0
New Line.Resist_MTR_TRF_1_3950A phases=1 bus1=242861.3 bus2= MRT_242861TRF_1_3950A.3 linecode=LC_MRT_TRF_1_3950A_1 length=0.001 units=km
New Reactor.TRF_1_3950A_R phases=1 bus1=ET1_3950.4 R=15 X=0 basefreq=60
New Transformer.TRF_1_3953A phases=1 windings=3 buses=[MRT_241771TRF_1_3953A.2 ET1_3953.1.4 ET1_3953.4.2] conns=[Wye Wye Wye] kvs=[13.3367912182804 0.22 0.22] kvas=[25 25 25] %loadloss=1.56 %noloadloss=0.36
New Linecode.LC_MRT_TRF_1_3953A_1 nphases=1 basefreq=60 r1=15000 x1=0 units=km normamps=0
New Linecode.LC_MRT_TRF_1_3953A_2 nphases=2 basefreq=60 r1=15000 x1=0 units=km normamps=0
New Linecode.LC_MRT_TRF_1_3953A_3 nphases=3 basefreq=60 r1=15000 x1=0 units=km normamps=0
New Linecode.LC_MRT_TRF_1_3953A_4 nphases=4 basefreq=60 r1=15000 x1=0 units=km normamps=0
New Line.Resist_MTR_TRF_1_3953A phases=1 bus1=241771.2 bus2= MRT_241771TRF_1_3953A.2 linecode=LC_MRT_TRF_1_3953A_1 length=0.001 units=km
New Reactor.TRF_1_3953A_R phases=1 bus1=ET1_3953.4 R=15 X=0 basefreq=60
New Transformer.TRF_1_3964A phases=3 windings=2 buses=[640361.1.2.3 ET1_3964.1.2.3.4] conns=[Delta Wye] kvs=[23.1 0.38] kvas=[30 30] %loadloss=2.1 %noloadloss=0.533333
New Reactor.TRF_1_3964A_R phases=1 bus1=ET1_3964.4 R=15 X=0 basefreq=60
New Transformer.TRF_1_3968A phases=1 windings=3 buses=[MRT_639801TRF_1_3968A.2 ET1_3968.1.4 ET1_3968.4.2] conns=[Wye Wye Wye] kvs=[13.3367912182804 0.22 0.22] kvas=[15 15 15] %loadloss=1.766667 %noloadloss=0.433333
New Linecode.LC_MRT_TRF_1_3968A_1 nphases=1 basefreq=60 r1=15000 x1=0 units=km normamps=0
New Linecode.LC_MRT_TRF_1_3968A_2 nphases=2 basefreq=60 r1=15000 x1=0 units=km normamps=0