New Line.RBT_101775 phases=2 bus1=BT377781.2.4 bus2=UC101775.2.4 linecode=50_2 length=0.02696 units=km
New Line.RBT_103036 phases=3 bus1=BT377781.1.2.4 bus2=UC103036.1.2.4 linecode=83_3 length=0.00443 units=km
New Line.RBT_103047 phases=2 bus1=BT200431.2.4 bus2=UC103047.2.4 linecode=50_2 length=0.01908 units=km
New Line.RBT_103049 phases=2 bus1=BT200411.1.4 bus2=UC103049.1.4 linecode=108_2 length=0.00463 units=km
New Line.RBT_103050 phases=2 bus1=BT194821.2.4 bus2=UC103050.2.4 linecode=50_2 length=0.03 units=km
New Line.RBT_123229 phases=2 bus1=BT200431.1.4 bus2=UC123229.1.4 linecode=50_2 length=0.02111 units=km
New Line.RBT_130502 phases=4 bus1=BT550351.1.2.3.4 bus2=UC130502.1.2.3.4 linecode=51_4 length=0.00572 units=km
New Line.RBT_129818 phases=2 bus1=BT269841.1.4 bus2=UC129818.1.4 linecode=108_2 length=0.03 units=km
New Line.RBT_131322 phases=2 bus1=BT348471.2.4 bus2=UC131322.2.4 linecode=50_2 length=0.01 units=km
New Line.RBT_131523 phases=2 bus1=BT269911.1.4 bus2=UC131523.1.4 linecode=50_2 length=0.01148 units=km
New Line.RBT_131716 phases=2 bus1=BT269861.1.4 bus2=UC131716.1.4 linecode=50_2 length=0.01023 units=km
New Line.RBT_131981 phases=3 bus1=BT435671.1.2.4 bus2=UC131981.1.2.4 linecode=83_3 length=0.00979 units=km
New Line.RBT_132088 phases=2 bus1=BT270802.2.4 bus2=UC132088.2.4 linecode=105_2 length=0.018 units=km
New Line.RBT_124522 phases=2 bus1=BT357151.1.4 bus2=UC124522.1.4 linecode=50_2 length=0.02868 units=km
New Line.RBT_124523 phases=2 bus1=BT269841.1.4 bus2=UC124523.1.4 linecode=50_2 length=0.02894 units=km
New Line.RBT_126197 phases=2 bus1=BT269851.1.4 bus2=UC126197.1.4 linecode=50_2 length=0.00987 units=km
New Line.RBT_127304 phases=2 bus1=BT313401.1.4 bus2=UC127304.1.4 linecode=105_2 length=0.012 units=km
New Line.RBT_127609 phases=2 bus1=BT701351.1.4 bus2=UC127609.1.4 linecode=105_2 length=0.012 units=km
New Line.RBT_128618 phases=2 bus1=BT313401.3.4 bus2=UC128618.3.4 linecode=105_2 length=0.005 units=km
New Line.RBT_128858 phases=2 bus1=BT269871.2.4 bus2=UC128858.2.4 linecode=50_2 length=0.02835 units=km
New Line.RBT_133865 phases=2 bus1=BT270812.3.4 bus2=UC133865.3.4 linecode=108_2 length=0.01434 units=km
New Line.RBT_134236 phases=2 bus1=BT270802.3.4 bus2=UC134236.3.4 linecode=108_2 length=0.02163 units=km
New Line.RBT_134297 phases=2 bus1=BT701351.2.4 bus2=UC134297.2.4 linecode=105_2 length=0.011 units=km
New Line.RBT_135839 phases=2 bus1=BT701301.1.4 bus2=UC135839.1.4 linecode=105_2 length=0.027 units=km
New Line.RBT_136142 phases=2 bus1=BT270812.2.4 bus2=UC136142.2.4 linecode=108_2 length=0.022 units=km
New Line.RBT_137887 phases=2 bus1=ET1_1113.3.4 bus2=UC137887.3.4 linecode=105_2 length=0.03 units=km
New Line.RBT_138164 phases=2 bus1=BT357151.3.4 bus2=UC138164.3.4 linecode=105_2 length=0.03 units=km
New Line.RBT_138294 phases=2 bus1=BT348471.3.4 bus2=UC138294.3.4 linecode=105_2 length=0.03 units=km
New Line.RBT_138283 phases=2 bus1=BT269911.1.4 bus2=UC138283.1.4 linecode=105_2 length=0.03 units=km
New Line.RBT_138437 phases=2 bus1=BT269871.3.4 bus2=UC138437.3.4 linecode=105_2 length=0.017 units=km
New Line.RBT_123137 phases=2 bus1=BT269861.1.4 bus2=UC123137.1.4 linecode=105_2 length=0.01 units=km
New Line.RBT_121513 phases=2 bus1=BT269861.2.4 bus2=UC121513.2.4 linecode=50_2 length=0.01871 units=km
New Line.RBT_121833 phases=2 bus1=BT357151.2.4 bus2=UC121833.2.4 linecode=50_2 length=0.02391 units=km
New Line.RBT_119066 phases=2 bus1=BT269861.3.4 bus2=UC119066.3.4 linecode=105_2 length=0.012 units=km
New Line.RBT_119067 phases=2 bus1=BT269861.2.4 bus2=UC119067.2.4 linecode=50_2 length=0.02131 units=km
New Line.RBT_119072 phases=2 bus1=BT348481.1.4 bus2=UC119072.1.4 linecode=50_2 length=0.01488 units=km
New Line.RBT_119579 phases=2 bus1=BT269861.2.4 bus2=UC119579.2.4 linecode=50_2 length=0.03 units=km
New Line.RBT_119740 phases=2 bus1=BT269841.2.4 bus2=UC119740.2.4 linecode=50_2 length=0.01275 units=km
New Line.RBT_121269 phases=2 bus1=BT269841.1.4 bus2=UC121269.1.4 linecode=105_2 length=0.027 units=km
New Line.RBT_104038 phases=2 bus1=BT269851.2.4 bus2=UC104038.2.4 linecode=50_2 length=0.01669 units=km
New Line.RBT_104043 phases=2 bus1=BT357151.1.4 bus2=UC104043.1.4 linecode=105_2 length=0.006 units=km
New Line.RBT_118215 phases=2 bus1=BT270802.2.4 bus2=UC118215.2.4 linecode=108_2 length=0.023 units=km
New Line.RBT_118528 phases=2 bus1=BT269851.1.4 bus2=UC118528.1.4 linecode=50_2 length=0.0247 units=km
New Line.RBT_102593 phases=2 bus1=BT269881.1.4 bus2=UC102593.1.4 linecode=50_2 length=0.0249 units=km
New Line.RBT_102585 phases=2 bus1=BT435671.1.4 bus2=UC102585.1.4 linecode=108_2 length=0.01026 units=km
New Line.RBT_102586 phases=3 bus1=BT435671.1.2.4 bus2=UC102586.1.2.4 linecode=83_3 length=0.01489 units=km
New Line.RBT_102588 phases=2 bus1=BT269901.1.4 bus2=UC102588.1.4 linecode=105_2 length=0.015 units=km
New Line.RBT_102589 phases=3 bus1=BT269891.1.2.4 bus2=UC102589.1.2.4 linecode=83_3 length=0.01674 units=km
New Line.RBT_102590 phases=2 bus1=BT269891.1.4 bus2=UC102590.1.4 linecode=50_2 length=0.01483 units=km
New Line.RBT_102591 phases=2 bus1=BT269841.2.4 bus2=UC102591.2.4 linecode=50_2 length=0.02059 units=km
New Line.RBT_102549 phases=2 bus1=BT133431.1.4 bus2=UC102549.1.4 linecode=50_2 length=0.00992 units=km
New Line.RBT_102553 phases=2 bus1=BT75951.2.4 bus2=UC102553.2.4 linecode=50_2 length=0.01077 units=km
New Line.RBT_102554 phases=2 bus1=BT320661.1.4 bus2=UC102554.1.4 linecode=50_2 length=0.01108 units=km
New Line.RBT_102555 phases=3 bus1=BT133411.1.2.4 bus2=UC102555.1.2.4 linecode=83_3 length=0.03 units=km
New Line.RBT_115344 phases=2 bus1=BT75951.1.4 bus2=UC115344.1.4 linecode=50_2 length=0.02979 units=km
New Line.RBT_115345 phases=2 bus1=BT133441.2.4 bus2=UC115345.2.4 linecode=50_2 length=0.01282 units=km
New Line.RBT_123250 phases=2 bus1=BT133431.1.4 bus2=UC123250.1.4 linecode=108_2 length=0.01929 units=km
New Line.RBT_122791 phases=2 bus1=BT597561.1.4 bus2=UC122791.1.4 linecode=50_2 length=0.01323 units=km
New Line.RBT_102600 phases=2 bus1=BT29121.2.4 bus2=UC102600.2.4 linecode=50_2 length=0.01987 units=km
New Line.RBT_103098 phases=2 bus1=BT29101.2.4 bus2=UC103098.2.4 linecode=50_2 length=0.02276 units=km
New Line.RBT_127709 phases=2 bus1=BT603411.1.4 bus2=UC127709.1.4 linecode=50_2 length=0.02056 units=km
New Line.RBT_138163 phases=2 bus1=BT805271.1.4 bus2=UC138163.1.4 linecode=50_2 length=0.015 units=km
New Line.RBT_133707 phases=2 bus1=BT805271.1.4 bus2=UC133707.1.4 linecode=50_2 length=0.03 units=km
New Line.RBT_102537 phases=3 bus1=BT76061.1.2.4 bus2=UC102537.1.2.4 linecode=83_3 length=0.01961 units=km
New Line.RBT_102539 phases=2 bus1=BT76111.2.4 bus2=UC102539.2.4 linecode=50_2 length=0.01137 units=km
New Line.RBT_103030 phases=3 bus1=BT182711.1.2.4 bus2=UC103030.1.2.4 linecode=83_3 length=0.0284 units=km
New Line.RBT_103031 phases=2 bus1=BT182701.1.4 bus2=UC103031.1.4 linecode=50_2 length=0.01172 units=km
New Line.RBT_103064 phases=2 bus1=ET1_1224.1.4 bus2=UC103064.1.4 linecode=50_2 length=0.02948 units=km
New Line.RBT_103014 phases=2 bus1=BT112451.2.4 bus2=UC103014.2.4 linecode=50_2 length=0.01349 units=km
New Line.RBT_103016 phases=2 bus1=BT112541.2.4 bus2=UC103016.2.4 linecode=50_2 length=0.0178 units=km
New Line.RBT_103027 phases=2 bus1=ET1_1225.2.4 bus2=UC103027.2.4 linecode=50_2 length=0.00994 units=km
New Line.RBT_103018 phases=2 bus1=BT112531.2.4 bus2=UC103018.2.4 linecode=50_2 length=0.03 units=km
New Line.RBT_103021 phases=2 bus1=BT112511.2.4 bus2=UC103021.2.4 linecode=50_2 length=0.02461 units=km
New Line.RBT_103022 phases=2 bus1=ET1_1225.2.4 bus2=UC103022.2.4 linecode=50_2 length=0.02359 units=km
New Line.RBT_103023 phases=2 bus1=BT112411.1.4 bus2=UC103023.1.4 linecode=105_2 length=0.015 units=km
New Line.RBT_101738 phases=2 bus1=BT112531.1.4 bus2=UC101738.1.4 linecode=50_2 length=0.01087 units=km
New Line.RBT_115346 phases=2 bus1=BT112531.1.4 bus2=UC115346.1.4 linecode=50_2 length=0.03 units=km
New Line.RBT_115347 phases=2 bus1=BT112391.1.4 bus2=UC115347.1.4 linecode=50_2 length=0.02756 units=km
New Line.RBT_137555 phases=2 bus1=BT95001.1.4 bus2=UC137555.1.4 linecode=105_2 length=0.03 units=km
New Line.RBT_136144 phases=2 bus1=BT112531.2.4 bus2=UC136144.2.4 linecode=108_2 length=0.03 units=km
New Line.RBT_128685 phases=2 bus1=BT235921.2.4 bus2=UC128685.2.4 linecode=50_2 length=0.00557 units=km
New Line.RBT_131183 phases=2 bus1=BT235851.1.4 bus2=UC131183.1.4 linecode=50_2 length=0.02248 units=km
New Line.RBT_117120 phases=2 bus1=BT235871.1.4 bus2=UC117120.1.4 linecode=50_2 length=0.02495 units=km
New Line.RBT_101489 phases=2 bus1=BT235851.1.4 bus2=UC101489.1.4 linecode=50_2 length=0.01652 units=km
New Line.RBT_103034 phases=2 bus1=BT235921.2.4 bus2=UC103034.2.4 linecode=50_2 length=0.01967 units=km
New Line.RBT_104063 phases=2 bus1=BT135071.1.4 bus2=UC104063.1.4 linecode=105_2 length=0.016 units=km
New Line.RBT_125880 phases=2 bus1=BT134921.1.4 bus2=UC125880.1.4 linecode=50_2 length=0.02653 units=km
New Line.RBT_125370 phases=2 bus1=BT302071.2.4 bus2=UC125370.2.4 linecode=108_2 length=0.017 units=km
New Line.RBT_126927 phases=2 bus1=BT201321.1.4 bus2=UC126927.1.4 linecode=105_2 length=0.02 units=km
New Line.RBT_131177 phases=2 bus1=BT313311.1.4 bus2=UC131177.1.4 linecode=50_2 length=0.02743 units=km
New Line.RBT_118670 phases=2 bus1=BT269801.2.4 bus2=UC118670.2.4 linecode=50_2 length=0.01408 units=km
New Line.RBT_122279 phases=2 bus1=BT269811.1.4 bus2=UC122279.1.4 linecode=50_2 length=0.03 units=km
New Line.RBT_103033 phases=2 bus1=BT269821.1.4 bus2=UC103033.1.4 linecode=108_2 length=0.01671 units=km
New Line.RBT_101485 phases=2 bus1=BT254881.2.4 bus2=UC101485.2.4 linecode=50_2 length=0.02267 units=km
New Line.RBT_103002 phases=2 bus1=BT254851.1.4 bus2=UC103002.1.4 linecode=50_2 length=0.03 units=km
New Line.RBT_103004 phases=2 bus1=BT254841.1.4 bus2=UC103004.1.4 linecode=50_2 length=0.00177 units=km
New Line.RBT_103005 phases=2 bus1=BT200241.1.4 bus2=UC103005.1.4 linecode=108_2 length=0.015 units=km
New Line.RBT_119069 phases=2 bus1=BT200281.1.4 bus2=UC119069.1.4 linecode=105_2 length=0.013 units=km
New Line.RBT_129680 phases=2 bus1=BT254881.2.4 bus2=UC129680.2.4 linecode=50_2 length=0.01144 units=km
New Line.RBT_131668 phases=2 bus1=BT148141.1.4 bus2=UC131668.1.4 linecode=50_2 length=0.01827 units=km
New Line.RBT_132591 phases=3 bus1=BT148141.1.2.4 bus2=UC132591.1.2.4 linecode=83_3 length=0.00607 units=km
New Line.RBT_134811 phases=2 bus1=BT292711.1.4 bus2=UC134811.1.4 linecode=50_2 length=0.01525 units=km
New Line.RBT_135325 phases=2 bus1=BT108731.2.4 bus2=UC135325.2.4 linecode=50_2 length=0.008 units=km
New Line.RBT_103816 phases=2 bus1=BT108731.3.4 bus2=UC103816.3.4 linecode=105_2 length=0.015 units=km
New Line.RBT_103238 phases=2 bus1=BT148202.1.4 bus2=UC103238.1.4 linecode=50_2 length=0.01572 units=km
New Line.RBT_103235 phases=2 bus1=BT148141.2.4 bus2=UC103235.2.4 linecode=50_2 length=0.01553 units=km
New Line.RBT_103264 phases=2 bus1=BT148151.1.4 bus2=UC103264.1.4 linecode=50_2 length=0.02735 units=km
New Line.RBT_103208 phases=2 bus1=BT108731.2.4 bus2=UC103208.2.4 linecode=50_2 length=0.01129 units=km
New Line.RBT_103210 phases=2 bus1=BT108811.3.4 bus2=UC103210.3.4 linecode=50_2 length=0.00985 units=km
New Line.RBT_103220 phases=4 bus1=BT148131.1.2.3.4 bus2=UC103220.1.2.3.4 linecode=51_4 length=0.01765 units=km
New Line.RBT_103221 phases=2 bus1=BT108811.1.4 bus2=UC103221.1.4 linecode=108_2 length=0.025 units=km
New Line.RBT_103222 phases=2 bus1=BT108811.1.4 bus2=UC103222.1.4 linecode=105_2 length=0.025 units=km
New Line.RBT_103231 phases=2 bus1=BT108801.2.4 bus2=UC103231.2.4 linecode=50_2 length=0.01733 units=km
New Line.RBT_103243 phases=4 bus1=BT148202.1.2.3.4 bus2=UC103243.1.2.3.4 linecode=51_4 length=0.00791 units=km
New Line.RBT_103244 phases=2 bus1=ET1_14.1.4 bus2=UC103244.1.4 linecode=108_2 length=0.00492 units=km
New Line.RBT_103246 phases=4 bus1=BT148181.1.2.3.4 bus2=UC103246.1.2.3.4 linecode=51_4 length=0.005 units=km
New Line.RBT_103247 phases=2 bus1=BT148171.3.4 bus2=UC103247.3.4 linecode=50_2 length=0.01242 units=km
New Line.RBT_103248 phases=2 bus1=BT148171.3.4 bus2=UC103248.3.4 linecode=50_2 length=0.01252 units=km
New Line.RBT_103249 phases=2 bus1=BT148161.3.4 bus2=UC103249.3.4 linecode=50_2 length=0.01577 units=km
New Line.RBT_102576 phases=2 bus1=BT26071.3.4 bus2=UC102576.3.4 linecode=108_2 length=0.02715 units=km
New Line.RBT_102577 phases=2 bus1=BT26071.3.4 bus2=UC102577.3.4 linecode=108_2 length=0.01601 units=km
New Line.RBT_102578 phases=2 bus1=BT29741.2.4 bus2=UC102578.2.4 linecode=108_2 length=0.013 units=km
New Line.RBT_102580 phases=2 bus1=BT610801.1.4 bus2=UC102580.1.4 linecode=50_2 length=0.013 units=km
New Line.RBT_101835 phases=2 bus1=BT29761.2.4 bus2=UC101835.2.4 linecode=108_2 length=0.02464 units=km
New Line.RBT_103501 phases=2 bus1=BT11191.1.4 bus2=UC103501.1.4 linecode=50_2 length=0.01183 units=km
New Line.RBT_118547 phases=2 bus1=ET1_1452.2.4 bus2=UC118547.2.4 linecode=108_2 length=0.027 units=km
New Line.RBT_118538 phases=2 bus1=ET1_1452.1.4 bus2=UC118538.1.4 linecode=108_2 length=0.018 units=km
New Line.RBT_115361 phases=2 bus1=BT29741.2.4 bus2=UC115361.2.4 linecode=50_2 length=0.01135 units=km
New Line.RBT_121512 phases=2 bus1=BT29751.2.4 bus2=UC121512.2.4 linecode=105_2 length=0.015 units=km
New Line.RBT_120237 phases=2 bus1=BT29761.3.4 bus2=UC120237.3.4 linecode=50_2 length=0.02392 units=km
New Line.RBT_134587 phases=2 bus1=BT519361.1.4 bus2=UC134587.1.4 linecode=108_2 length=0.018 units=km
New Line.RBT_133303 phases=2 bus1=BT532941.1.4 bus2=UC133303.1.4 linecode=50_2 length=0.01223 units=km
New Line.RBT_134222 phases=2 bus1=BT532941.1.4 bus2=UC134222.1.4 linecode=50_2 length=0.017 units=km
New Line.RBT_134018 phases=2 bus1=BT532941.1.4 bus2=UC134018.1.4 linecode=50_2 length=0.02039 units=km
New Line.RBT_133685 phases=2 bus1=BT29751.1.4 bus2=UC133685.1.4 linecode=50_2 length=0.02522 units=km
New Line.RBT_136906 phases=2 bus1=BT29761.3.4 bus2=UC136906.3.4 linecode=105_2 length=0.028 units=km
New Line.RBT_138672 phases=2 bus1=BT11191.1.4 bus2=UC138672.1.4 linecode=105_2 length=0.03 units=km
New Line.RBT_138340 phases=2 bus1=ET1_1452.3.4 bus2=UC138340.3.4 linecode=105_2 length=0.03 units=km
New Line.RBT_132216 phases=2 bus1=BT29751.1.4 bus2=UC132216.1.4 linecode=50_2 length=0.02966 units=km
New Line.RBT_128140 phases=2 bus1=BT29761.1.4 bus2=UC128140.1.4 linecode=50_2 length=0.00993 units=km
New Line.RBT_129305 phases=2 bus1=BT610801.1.4 bus2=UC129305.1.4 linecode=50_2 length=0.01253 units=km
New Line.RBT_129086 phases=2 bus1=BT798561.1.4 bus2=UC129086.1.4 linecode=50_2 length=0.02666 units=km
New Line.RBT_131324 phases=2 bus1=BT798561.1.4 bus2=UC131324.1.4 linecode=50_2 length=0.01773 units=km
New Line.RBT_129773 phases=2 bus1=BT78612.1.4 bus2=UC129773.1.4 linecode=50_2 length=0.01675 units=km
New Line.RBT_137561 phases=2 bus1=BT78601.3.4 bus2=UC137561.3.4 linecode=105_2 length=0.008 units=km
New Line.RBT_120792 phases=2 bus1=BT798561.1.4 bus2=UC120792.1.4 linecode=50_2 length=0.02529 units=km
New Line.RBT_119060 phases=2 bus1=BT78672.2.4 bus2=UC119060.2.4 linecode=50_2 length=0.01231 units=km
New Line.RBT_123493 phases=4 bus1=BT78601.1.2.3.4 bus2=UC123493.1.2.3.4 linecode=51_4 length=0.00172 units=km
New Line.RBT_119011 phases=2 bus1=BT78632.2.4 bus2=UC119011.2.4 linecode=50_2 length=0.0163 units=km
New Line.RBT_103811 phases=2 bus1=BT798531.3.4 bus2=UC103811.3.4 linecode=50_2 length=0.007 units=km
New Line.RBT_101257 phases=2 bus1=BT798531.3.4 bus2=UC101257.3.4 linecode=50_2 length=0.01276 units=km
New Line.RBT_102505 phases=2 bus1=BT78651.2.4 bus2=UC102505.2.4 linecode=108_2 length=0.02801 units=km
New Line.RBT_102509 phases=2 bus1=BT78651.1.4 bus2=UC102509.1.4 linecode=105_2 length=0.028 units=km
New Line.RBT_102525 phases=2 bus1=BT78581.3.4 bus2=UC102525.3.4 linecode=50_2 length=0.0298 units=km
New Line.RBT_102528 phases=2 bus1=BT78592.3.4 bus2=UC102528.3.4 linecode=50_2 length=0.02301 units=km
New Line.RBT_2519107 phases=2 bus1=BT620032.1.4 bus2=UC2519107.1.4 linecode=50_2 length=0.02928 units=km
New Line.RBT_2519166 phases=2 bus1=BT338951.2.4 bus2=UC2519166.2.4 linecode=50_2 length=0.00148 units=km
New Line.RBT_2519407 phases=2 bus1=BT78592.3.4 bus2=UC2519407.3.4 linecode=50_2 length=0.02225 units=km
New Line.RBT_2521595 phases=2 bus1=BT338961.1.4 bus2=UC2521595.1.4 linecode=50_2 length=0.02341 units=km
New Line.RBT_2523943 phases=4 bus1=ET1_1494.1.2.3.4 bus2=UC2523943.1.2.3.4 linecode=51_4 length=0.03 units=km
New Line.RBT_2524776 phases=2 bus1=BT338961.1.4 bus2=UC2524776.1.4 linecode=50_2 length=0.02213 units=km
New Line.RBT_2503577 phases=2 bus1=BT77791.1.4 bus2=UC2503577.1.4 linecode=108_2 length=0.01879 units=km
New Line.RBT_102512 phases=4 bus1=BT798591.1.2.3.4 bus2=UC102512.1.2.3.4 linecode=51_4 length=0.03 units=km
New Line.RBT_102513 phases=2 bus1=ET1_1495.2.4 bus2=UC102513.2.4 linecode=105_2 length=0.005 units=km
New Line.RBT_102515 phases=2 bus1=BT193382.3.4 bus2=UC102515.3.4 linecode=105_2 length=0.03 units=km
New Line.RBT_123506 phases=2 bus1=BT77791.2.4 bus2=UC123506.2.4 linecode=50_2 length=0.0161 units=km
New Line.RBT_121955 phases=2 bus1=ET1_1495.2.4 bus2=UC121955.2.4 linecode=108_2 length=0.03 units=km
New Line.RBT_120598 phases=2 bus1=BT193382.3.4 bus2=UC120598.3.4 linecode=50_2 length=0.0213 units=km
New Line.RBT_121378 phases=2 bus1=BT77781.2.4 bus2=UC121378.2.4 linecode=50_2 length=0.01868 units=km
New Line.RBT_138775 phases=2 bus1=BT798631.3.4 bus2=UC138775.3.4 linecode=105_2 length=0.024 units=km
New Line.RBT_138776 phases=2 bus1=BT798641.3.4 bus2=UC138776.3.4 linecode=105_2 length=0.01 units=km
New Line.RBT_129282 phases=2 bus1=BT151421.1.4 bus2=UC129282.1.4 linecode=50_2 length=0.02597 units=km
New Line.RBT_129821 phases=2 bus1=BT798641.1.4 bus2=UC129821.1.4 linecode=105_2 length=0.01 units=km
New Line.RBT_131988 phases=2 bus1=BT77781.1.4 bus2=UC131988.1.4 linecode=50_2 length=0.03 units=km
New Line.RBT_124930 phases=2 bus1=BT151432.1.4 bus2=UC124930.1.4 linecode=50_2 length=0.0235 units=km
New Line.RBT_138931 phases=2 bus1=ET1_1495.3.4 bus2=UC138931.3.4 linecode=105_2 length=0.003 units=km
New Line.RBT_136629 phases=2 bus1=BT795011.2.4 bus2=UC136629.2.4 linecode=105_2 length=0.03 units=km
New Line.RBT_103641 phases=2 bus1=BT795011.1.4 bus2=UC103641.1.4 linecode=50_2 length=0.02886 units=km
New Line.RBT_103058 phases=2 bus1=BT254991.2.4 bus2=UC103058.2.4 linecode=108_2 length=0.02315 units=km
New Line.RBT_104095 phases=4 bus1=BT342931.1.2.3.4 bus2=UC104095.1.2.3.4 linecode=51_4 length=0.02077 units=km
New Line.RBT_121836 phases=4 bus1=ET1_1549.1.2.3.4 bus2=UC121836.1.2.3.4 linecode=109_4 length=0.015 units=km
New Line.RBT_101706 phases=2 bus1=BT29871.1.4 bus2=UC101706.1.4 linecode=108_2 length=0.01019 units=km
New Line.RBT_102561 phases=4 bus1=BT29861.1.2.3.4 bus2=UC102561.1.2.3.4 linecode=51_4 length=0.03 units=km
New Line.RBT_131672 phases=4 bus1=ET1_1557.1.2.3.4 bus2=UC131672.1.2.3.4 linecode=51_4 length=0.02631 units=km
New Line.RBT_125871 phases=2 bus1=BT110462.2.4 bus2=UC125871.2.4 linecode=105_2 length=0.015 units=km
New Line.RBT_128296 phases=4 bus1=BT110361.1.2.3.4 bus2=UC128296.1.2.3.4 linecode=51_4 length=0.0144 units=km
New Line.RBT_103250 phases=4 bus1=BT110361.1.2.3.4 bus2=UC103250.1.2.3.4 linecode=51_4 length=0.01687 units=km
New Line.RBT_103251 phases=2 bus1=BT583281.2.4 bus2=UC103251.2.4 linecode=50_2 length=0.023 units=km
New Line.RBT_103252 phases=2 bus1=BT583281.3.4 bus2=UC103252.3.4 linecode=108_2 length=0.01742 units=km
New Line.RBT_103254 phases=2 bus1=BT110391.1.4 bus2=UC103254.1.4 linecode=50_2 length=0.01118 units=km
New Line.RBT_103214 phases=4 bus1=BT110411.1.2.3.4 bus2=UC103214.1.2.3.4 linecode=51_4 length=0.024 units=km
New Line.RBT_103215 phases=2 bus1=BT110431.2.4 bus2=UC103215.2.4 linecode=50_2 length=0.0175 units=km
New Line.RBT_103216 phases=4 bus1=BT110441.1.2.3.4 bus2=UC103216.1.2.3.4 linecode=51_4 length=0.02762 units=km
New Line.RBT_103218 phases=2 bus1=BT110421.3.4 bus2=UC103218.3.4 linecode=50_2 length=0.01849 units=km
New Line.RBT_103072 phases=2 bus1=BT110462.3.4 bus2=UC103072.3.4 linecode=50_2 length=0.01664 units=km
New Line.RBT_103075 phases=2 bus1=BT110462.1.4 bus2=UC103075.1.4 linecode=50_2 length=0.00233 units=km
New Line.RBT_103076 phases=2 bus1=BT110451.2.4 bus2=UC103076.2.4 linecode=50_2 length=0.00707 units=km
New Line.RBT_103077 phases=2 bus1=BT110421.3.4 bus2=UC103077.3.4 linecode=50_2 length=0.02437 units=km
New Line.RBT_122296 phases=2 bus1=BT110421.3.4 bus2=UC122296.3.4 linecode=50_2 length=0.00897 units=km
New Line.RBT_122514 phases=2 bus1=BT110361.3.4 bus2=UC122514.3.4 linecode=50_2 length=0.00804 units=km
New Line.RBT_122806 phases=4 bus1=ET1_1576.1.2.3.4 bus2=UC122806.1.2.3.4 linecode=51_4 length=0.02035 units=km
New Line.RBT_121396 phases=4 bus1=ET1_1576.1.2.3.4 bus2=UC121396.1.2.3.4 linecode=51_4 length=0.01885 units=km
New Line.RBT_120390 phases=4 bus1=BT583281.1.2.3.4 bus2=UC120390.1.2.3.4 linecode=51_4 length=0.02491 units=km
New Line.RBT_118234 phases=2 bus1=BT110411.3.4 bus2=UC118234.3.4 linecode=50_2 length=0.00838 units=km
New Line.RBT_103256 phases=2 bus1=ET1_1576.2.4 bus2=UC103256.2.4 linecode=108_2 length=0.01996 units=km
New Line.RBT_103258 phases=2 bus1=BT110411.2.4 bus2=UC103258.2.4 linecode=50_2 length=0.00894 units=km
New Line.RBT_103266 phases=2 bus1=BT108641.3.4 bus2=UC103266.3.4 linecode=50_2 length=0.00853 units=km
New Line.RBT_103801 phases=2 bus1=BT108641.3.4 bus2=UC103801.3.4 linecode=50_2 length=0.01537 units=km
New Line.RBT_104053 phases=2 bus1=BT108711.2.4 bus2=UC104053.2.4 linecode=50_2 length=0.01864 units=km
New Line.RBT_118564 phases=2 bus1=BT108621.1.4 bus2=UC118564.1.4 linecode=50_2 length=0.00764 units=km
New Line.RBT_117101 phases=2 bus1=BT108711.2.4 bus2=UC117101.2.4 linecode=50_2 length=0.01666 units=km
New Line.RBT_120229 phases=2 bus1=BT108671.2.4 bus2=UC120229.2.4 linecode=108_2 length=0.03 units=km
New Line.RBT_103087 phases=4 bus1=BT108631.1.2.3.4 bus2=UC103087.1.2.3.4 linecode=51_4 length=0.02346 units=km
New Line.RBT_103206 phases=2 bus1=BT108711.2.4 bus2=UC103206.2.4 linecode=105_2 length=0.008 units=km
New Line.RBT_103226 phases=2 bus1=BT274731.1.4 bus2=UC103226.1.4 linecode=50_2 length=0.025 units=km
New Line.RBT_103228 phases=2 bus1=BT349541.3.4 bus2=UC103228.3.4 linecode=50_2 length=0.01391 units=km
New Line.RBT_103229 phases=2 bus1=BT349541.3.4 bus2=UC103229.3.4 linecode=50_2 length=0.01714 units=km
New Line.RBT_103006 phases=3 bus1=BT108681.1.2.4 bus2=UC103006.1.2.4 linecode=83_3 length=0.00965 units=km
New Line.RBT_103007 phases=2 bus1=BT108631.3.4 bus2=UC103007.3.4 linecode=50_2 length=0.01952 units=km
New Line.RBT_103008 phases=2 bus1=BT108621.1.4 bus2=UC103008.1.4 linecode=50_2 length=0.01542 units=km
New Line.RBT_103009 phases=2 bus1=BT274751.2.4 bus2=UC103009.2.4 linecode=50_2 length=0.01319 units=km
New Line.RBT_100594 phases=4 bus1=BT108701.1.2.3.4 bus2=UC100594.1.2.3.4 linecode=51_4 length=0.01967 units=km
New Line.RBT_102520 phases=2 bus1=BT108701.1.4 bus2=UC102520.1.4 linecode=108_2 length=0.01967 units=km
New Line.RBT_128610 phases=2 bus1=BT274731.3.4 bus2=UC128610.3.4 linecode=50_2 length=0.00927 units=km
New Line.RBT_126844 phases=2 bus1=BT108641.3.4 bus2=UC126844.3.4 linecode=50_2 length=0.01445 units=km
New Line.RBT_124700 phases=4 bus1=BT108711.1.2.3.4 bus2=UC124700.1.2.3.4 linecode=51_4 length=0.00313 units=km
New Line.RBT_131517 phases=2 bus1=BT108721.1.4 bus2=UC131517.1.4 linecode=50_2 length=0.01029 units=km
New Line.RBT_130542 phases=2 bus1=BT349541.3.4 bus2=UC130542.3.4 linecode=50_2 length=0.01785 units=km
New Line.RBT_133393 phases=2 bus1=BT108621.1.4 bus2=UC133393.1.4 linecode=50_2 length=0.01407 units=km
New Line.RBT_134154 phases=4 bus1=BT108701.1.2.3.4 bus2=UC134154.1.2.3.4 linecode=51_4 length=0.01493 units=km
New Line.RBT_134300 phases=2 bus1=BT737881.1.4 bus2=UC134300.1.4 linecode=50_2 length=0.00512 units=km
New Line.RBT_135463 phases=2 bus1=BT737881.2.4 bus2=UC135463.2.4 linecode=50_2 length=0.025 units=km
New Line.RBT_135374 phases=2 bus1=BT133321.2.4 bus2=UC135374.2.4 linecode=50_2 length=0.03 units=km
New Line.RBT_102558 phases=2 bus1=BT133331.2.4 bus2=UC102558.2.4 linecode=108_2 length=0.0282 units=km
New Line.RBT_102559 phases=2 bus1=BT133321.1.4 bus2=UC102559.1.4 linecode=50_2 length=0.01623 units=km
New Line.RBT_103013 phases=3 bus1=ET1_1610.1.2.4 bus2=UC103013.1.2.4 linecode=83_3 length=0.02247 units=km
New Line.RBT_118520 phases=2 bus1=BT113361.1.4 bus2=UC118520.1.4 linecode=50_2 length=0.01502 units=km
New Line.RBT_420599 phases=2 bus1=BT561251.1.4 bus2=UC420599.1.4 linecode=50_2 length=0.03 units=km
New Line.RBT_119554 phases=2 bus1=BT76151.1.4 bus2=UC119554.1.4 linecode=50_2 length=0.01562 units=km
New Line.RBT_120785 phases=2 bus1=BT362791.1.4 bus2=UC120785.1.4 linecode=50_2 length=0.01096 units=km
New Line.RBT_123213 phases=2 bus1=BT76142.1.4 bus2=UC123213.1.4 linecode=50_2 length=0.01744 units=km
New Line.RBT_102541 phases=2 bus1=BT76161.2.4 bus2=UC102541.2.4 linecode=108_2 length=0.01537 units=km
New Line.RBT_131083 phases=2 bus1=BT76161.2.4 bus2=UC131083.2.4 linecode=50_2 length=0.02362 units=km
New Line.RBT_127604 phases=2 bus1=BT76161.1.4 bus2=UC127604.1.4 linecode=108_2 length=0.01952 units=km
New Line.RBT_125709 phases=2 bus1=BT92101.1.4 bus2=UC125709.1.4 linecode=50_2 length=0.0122 units=km
New Line.RBT_134646 phases=2 bus1=BT80221.1.4 bus2=UC134646.1.4 linecode=50_2 length=0.01736 units=km
New Line.RBT_119046 phases=2 bus1=BT80161.1.4 bus2=UC119046.1.4 linecode=50_2 length=0.00899 units=km
New Line.RBT_118574 phases=2 bus1=BT92111.1.4 bus2=UC118574.1.4 linecode=50_2 length=0.02522 units=km
New Line.RBT_104032 phases=2 bus1=BT135941.2.4 bus2=UC104032.2.4 linecode=50_2 length=0.00901 units=km
New Line.RBT_102024 phases=2 bus1=BT135931.1.4 bus2=UC102024.1.4 linecode=108_2 length=0.01554 units=km
New Line.RBT_129710 phases=2 bus1=BT135921.1.4 bus2=UC129710.1.4 linecode=108_2 length=0.01427 units=km
New Line.RBT_129778 phases=2 bus1=BT665721.1.4 bus2=UC129778.1.4 linecode=50_2 length=0.0205 units=km
New Line.RBT_124798 phases=2 bus1=BT156231.1.4 bus2=UC124798.1.4 linecode=105_2 length=0.011 units=km
New Line.RBT_133305 phases=2 bus1=BT551211.1.4 bus2=UC133305.1.4 linecode=50_2 length=0.01024 units=km
New Line.RBT_102523 phases=2 bus1=BT551211.1.4 bus2=UC102523.1.4 linecode=50_2 length=0.02801 units=km
New Line.RBT_103066 phases=2 bus1=BT111021.1.4 bus2=UC103066.1.4 linecode=50_2 length=0.01014 units=km
New Line.RBT_103067 phases=2 bus1=BT111041.2.4 bus2=UC103067.2.4 linecode=50_2 length=0.02062 units=km
New Line.RBT_122293 phases=2 bus1=BT111041.2.4 bus2=UC122293.2.4 linecode=105_2 length=0.015 units=km
New Line.RBT_104080 phases=4 bus1=ET1_173.1.2.3.4 bus2=UC104080.1.2.3.4 linecode=109_4 length=0.01579 units=km
New Line.RBT_102570 phases=2 bus1=BT12281.1.4 bus2=UC102570.1.4 linecode=50_2 length=0.0046 units=km
New Line.RBT_102571 phases=4 bus1=ET1_173.1.2.3.4 bus2=UC102571.1.2.3.4 linecode=51_4 length=0.02484 units=km
New Line.RBT_139254 phases=4 bus1=ET1_173.1.2.3.4 bus2=UC139254.1.2.3.4 linecode=51_4 length=0.03 units=km
New Line.RBT_103081 phases=4 bus1=BT150831.1.2.3.4 bus2=UC103081.1.2.3.4 linecode=51_4 length=0.00854 units=km
New Line.RBT_133862 phases=2 bus1=BT134961.2.4 bus2=UC133862.2.4 linecode=50_2 length=0.01725 units=km
New Line.RBT_134159 phases=4 bus1=BT741621.1.2.3.4 bus2=UC134159.1.2.3.4 linecode=51_4 length=0.00983 units=km
New Line.RBT_136384 phases=4 bus1=BT134971.1.2.3.4 bus2=UC136384.1.2.3.4 linecode=51_4 length=0.03 units=km
New Line.RBT_129608 phases=2 bus1=BT653071.2.4 bus2=UC129608.2.4 linecode=50_2 length=0.03 units=km
New Line.RBT_130580 phases=2 bus1=ET1_1852.1.4 bus2=UC130580.1.4 linecode=105_2 length=0.008 units=km
New Line.RBT_129001 phases=2 bus1=BT347681.1.4 bus2=UC129001.1.4 linecode=50_2 length=0.02714 units=km
New Line.RBT_134235 phases=2 bus1=BT347671.2.4 bus2=UC134235.2.4 linecode=105_2 length=0.013 units=km
New Line.RBT_127554 phases=2 bus1=ET1_1898.1.4 bus2=UC127554.1.4 linecode=50_2 length=0.024 units=km
New Line.RBT_126203 phases=2 bus1=BT352521.1.4 bus2=UC126203.1.4 linecode=105_2 length=0.03 units=km
New Line.RBT_132211 phases=2 bus1=BT352521.1.4 bus2=UC132211.1.4 linecode=50_2 length=0.01512 units=km
New Line.RBT_115321 phases=2 bus1=BT79261.2.4 bus2=UC115321.2.4 linecode=50_2 length=0.02388 units=km
New Line.RBT_115329 phases=2 bus1=BT270721.1.4 bus2=UC115329.1.4 linecode=50_2 length=0.02131 units=km
New Line.RBT_117118 phases=2 bus1=BT269951.1.4 bus2=UC117118.1.4 linecode=105_2 length=0.00918 units=km
New Line.RBT_117166 phases=2 bus1=BT270651.1.4 bus2=UC117166.1.4 linecode=50_2 length=0.01691 units=km
New Line.RBT_121848 phases=2 bus1=BT270711.1.4 bus2=UC121848.1.4 linecode=108_2 length=0.01561 units=km
New Line.RBT_119064 phases=2 bus1=BT270671.2.4 bus2=UC119064.2.4 linecode=50_2 length=0.0173 units=km
New Line.RBT_119084 phases=4 bus1=BT270631.1.2.3.4 bus2=UC119084.1.2.3.4 linecode=51_4 length=0.01322 units=km
New Line.RBT_119440 phases=2 bus1=BT270691.1.4 bus2=UC119440.1.4 linecode=50_2 length=0.01179 units=km
New Line.RBT_131521 phases=2 bus1=BT269941.2.4 bus2=UC131521.2.4 linecode=108_2 length=0.01429 units=km
New Line.RBT_126494 phases=2 bus1=ET1_1912.2.4 bus2=UC126494.2.4 linecode=108_2 length=0.02625 units=km
New Line.RBT_129249 phases=4 bus1=ET1_1912.1.2.3.4 bus2=UC129249.1.2.3.4 linecode=51_4 length=0.02934 units=km
New Line.RBT_138927 phases=2 bus1=BT270631.3.4 bus2=UC138927.3.4 linecode=50_2 length=0.017 units=km
New Line.RBT_129847 phases=2 bus1=ET1_1913.1.4 bus2=UC129847.1.4 linecode=108_2 length=0.03 units=km
New Line.RBT_133544 phases=2 bus1=ET1_1913.1.4 bus2=UC133544.1.4 linecode=50_2 length=0.02889 units=km
New Line.RBT_135603 phases=2 bus1=ET1_1913.1.4 bus2=UC135603.1.4 linecode=108_2 length=0.02148 units=km
New Line.RBT_118554 phases=2 bus1=BT270751.2.4 bus2=UC118554.2.4 linecode=50_2 length=0.02462 units=km
New Line.RBT_115395 phases=2 bus1=BT270761.1.4 bus2=UC115395.1.4 linecode=50_2 length=0.01545 units=km