New Line.SMT_10000 phases=3 bus1=22CF931.1.2.3 bus2= 265281.1.2.3 linecode=10_3 length=0.12186 units=km
New Line.SMT_10009 phases=3 bus1=179071.1.2.3 bus2= 179081.1.2.3 linecode=28_3 length=0.0211 units=km
New Line.SMT_10010 phases=1 bus1=269551.3 bus2= 269581.3 linecode=34_1 length=0.15145 units=km
New Line.SMT_10011 phases=1 bus1=272611.3 bus2= 272621.3 linecode=30_1 length=0.1252 units=km
New Line.SMT_10013 phases=3 bus1=221361.1.2.3 bus2= 221371.1.2.3 linecode=28_3 length=0.05277 units=km
New Line.SMT_10014 phases=3 bus1=160381.1.2.3 bus2= 160361.1.2.3 linecode=28_3 length=0.04327 units=km
New Line.SMT_10024 phases=3 bus1=248761.1.2.3 bus2= 248771.1.2.3 linecode=28_3 length=0.10118 units=km
New Line.SMT_10025 phases=3 bus1=185061.1.2.3 bus2= 184981.1.2.3 linecode=28_3 length=0.03444 units=km
New Line.SMT_10026 phases=1 bus1=246201.1 bus2= 246211.1 linecode=1_1 length=0.07974 units=km
New Line.SMT_10027 phases=3 bus1=130771.1.2.3 bus2= 130781.1.2.3 linecode=10_3 length=0.12525 units=km
New Line.SMT_10028 phases=1 bus1=182741.3 bus2= 182751.3 linecode=37_1 length=0.07185 units=km
New Line.SMT_10037 phases=3 bus1=260761.1.2.3.4 bus2= 260751.1.2.3.4 linecode=33_3 length=0.08438 units=km
New Line.SMT_10042 phases=1 bus1=210821.3 bus2= 230621.3 linecode=1_1 length=0.43374 units=km
New Line.SMT_10044 phases=3 bus1=162041.1.2.3 bus2= 162051.1.2.3 linecode=28_3 length=0.05941 units=km
New Line.SMT_10046 phases=1 bus1=232381.3 bus2= 232371.3 linecode=1_1 length=0.08228 units=km
New Line.SMT_10050 phases=1 bus1=225751.2 bus2= 225761.2 linecode=1_1 length=0.24382 units=km
New Line.SMT_10051 phases=3 bus1=252661.1.2.3 bus2= 252651.1.2.3 linecode=13_3 length=0.07747 units=km
New Line.SMT_10052 phases=3 bus1=160501.1.2.3 bus2= 231471.1.2.3 linecode=28_3 length=0.11575 units=km
New Line.SMT_10057 phases=3 bus1=282991.1.2.3 bus2= 283001.1.2.3 linecode=10_3 length=0.10456 units=km
New Line.SMT_10058 phases=3 bus1=185081.1.2.3 bus2= 159531.1.2.3 linecode=28_3 length=0.05622 units=km
New Line.SMT_10059 phases=3 bus1=265381.1.2.3 bus2= 265391.1.2.3 linecode=10_3 length=0.0722 units=km
New Line.SMT_10060 phases=1 bus1=225761.2 bus2= 284071.2 linecode=1_1 length=0.08786 units=km
New Line.SMT_10062 phases=3 bus1=285111.1.2.3 bus2= 285121.1.2.3 linecode=10_3 length=0.07518 units=km
New Line.SMT_10064 phases=1 bus1=284991.2 bus2= 285011.2 linecode=1_1 length=0.13577 units=km
New Line.SMT_10065 phases=3 bus1=266411.1.2.3 bus2= 266421.1.2.3 linecode=10_3 length=0.06712 units=km
New Line.SMT_10067 phases=1 bus1=278501.3 bus2= 236851.3 linecode=1_1 length=0.13147 units=km
New Line.SMT_10071 phases=3 bus1=267191.1.2.3 bus2= 179061.1.2.3 linecode=28_3 length=0.01392 units=km
New Line.SMT_10073 phases=3 bus1=163251.1.2.3 bus2= 162511.1.2.3 linecode=28_3 length=0.0478 units=km
New Line.SMT_10079 phases=3 bus1=283891.1.2.3 bus2= 283901.1.2.3 linecode=13_3 length=0.08134 units=km
New Line.SMT_10081 phases=3 bus1=108111.1.2.3 bus2= 312311.1.2.3 linecode=28_3 length=0.09485 units=km
New Line.SMT_10083 phases=3 bus1=160391.1.2.3 bus2= 334701.1.2.3 linecode=28_3 length=0.03441 units=km
New Line.SMT_10085 phases=1 bus1=182761.3 bus2= 182771.3 linecode=37_1 length=0.08868 units=km
New Line.SMT_10086 phases=3 bus1=266421.1.2.3 bus2= 266441.1.2.3 linecode=10_3 length=0.09941 units=km
New Line.SMT_10089 phases=3 bus1=22CF223.1.2.3 bus2= 358631.1.2.3 linecode=10_3 length=0.0178 units=km
New Line.SMT_10092 phases=3 bus1=232551.1.2.3 bus2= 232561.1.2.3 linecode=10_3 length=0.07344 units=km
New Line.SMT_10096 phases=1 bus1=236861.3 bus2= 164761.3 linecode=1_1 length=0.07527 units=km
New Line.SMT_10097 phases=3 bus1=266371.1.2.3 bus2= 266381.1.2.3 linecode=10_3 length=0.07855 units=km
New Line.SMT_10099 phases=3 bus1=22CF464.1.2.3 bus2= 263531.1.2.3 linecode=10_3 length=0.09497 units=km
New Line.SMT_1010 phases=1 bus1=220821.1 bus2= 220881.1 linecode=1_1 length=0.0846 units=km
New Line.SMT_10105 phases=1 bus1=279941.2 bus2= 298651.2 linecode=1_1 length=0.10416 units=km
New Line.SMT_10106 phases=3 bus1=289801.1.2.3 bus2= 232421.1.2.3 linecode=10_3 length=0.07732 units=km
New Line.SMT_10109 phases=3 bus1=269661.1.2.3 bus2= 269651.1.2.3 linecode=13_3 length=0.08797 units=km
New Line.SMT_10110 phases=3 bus1=283061.1.2.3 bus2= 283071.1.2.3 linecode=10_3 length=0.06217 units=km
New Line.SMT_10111 phases=3 bus1=266261.1.2.3 bus2= 266271.1.2.3 linecode=10_3 length=0.06454 units=km
New Line.SMT_10112 phases=1 bus1=182791.3 bus2= 182801.3 linecode=37_1 length=0.10903 units=km
New Line.SMT_10115 phases=1 bus1=296301.2 bus2= 296311.2 linecode=1_1 length=0.09694 units=km
New Line.SMT_10117 phases=3 bus1=279821.1.2.3 bus2= 279871.1.2.3 linecode=10_3 length=0.08907 units=km
New Line.SMT_10120 phases=3 bus1=264601.1.2.3 bus2= 264611.1.2.3 linecode=10_3 length=0.10515 units=km
New Line.SMT_10124 phases=3 bus1=379231.1.2.3 bus2= 328391.1.2.3 linecode=10_3 length=0.05197 units=km
New Line.SMT_10126 phases=3 bus1=269701.1.2.3 bus2= 269671.1.2.3 linecode=13_3 length=0.08031 units=km
New Line.SMT_10129 phases=3 bus1=263611.1.2.3 bus2= 263621.1.2.3 linecode=10_3 length=0.1042 units=km
New Line.SMT_10137 phases=3 bus1=108101.1.2.3 bus2= 163361.1.2.3 linecode=28_3 length=0.08363 units=km
New Line.SMT_10138 phases=3 bus1=269651.1.2.3 bus2= 269641.1.2.3 linecode=13_3 length=0.06946 units=km
New Line.SMT_10139 phases=3 bus1=146471.1.2.3 bus2= 298271.1.2.3 linecode=13_3 length=0.0578 units=km
New Line.SMT_10140 phases=3 bus1=279961.1.2.3 bus2= 279981.1.2.3 linecode=10_3 length=0.10589 units=km
New Line.SMT_10141 phases=3 bus1=282951.1.2.3 bus2= 282981.1.2.3 linecode=10_3 length=0.09669 units=km
New Line.SMT_10142 phases=1 bus1=251821.2 bus2= 251831.2 linecode=1_1 length=0.11132 units=km
New Line.SMT_10145 phases=3 bus1=271871.1.2.3 bus2= 271941.1.2.3 linecode=10_3 length=0.07306 units=km
New Line.SMT_10147 phases=3 bus1=293411.1.2.3 bus2= 293431.1.2.3 linecode=10_3 length=0.10679 units=km
New Line.SMT_10149 phases=3 bus1=248771.1.2.3 bus2= 662921.1.2.3 linecode=28_3 length=0.0986 units=km
New Line.SMT_10155 phases=2 bus1=255121.1.2 bus2= 406991.1.2 linecode=18_2 length=0.09827 units=km
New Line.SMT_10161 phases=3 bus1=233161.1.2.3 bus2= 233151.1.2.3 linecode=10_3 length=0.08041 units=km
New Line.SMT_10164 phases=3 bus1=232411.1.2.3 bus2= 289801.1.2.3 linecode=10_3 length=0.12706 units=km
New Line.SMT_10165 phases=3 bus1=248701.1.2.3 bus2= 248711.1.2.3 linecode=28_3 length=0.05174 units=km
New Line.SMT_10166 phases=1 bus1=232371.3 bus2= 232361.3 linecode=1_1 length=0.08127 units=km
New Line.SMT_10169 phases=3 bus1=286021.1.2.3 bus2= 286011.1.2.3 linecode=13_3 length=0.08628 units=km
New Line.SMT_10170 phases=3 bus1=231481.1.2.3 bus2= 229731.1.2.3 linecode=28_3 length=0.07034 units=km
New Line.SMT_10171 phases=3 bus1=274541.1.2.3 bus2= 274531.1.2.3 linecode=13_3 length=0.06335 units=km
New Line.SMT_10172 phases=3 bus1=253261.1.2.3 bus2= 253651.1.2.3 linecode=13_3 length=0.08713 units=km
New Line.SMT_10176 phases=3 bus1=232421.1.2.3 bus2= 233111.1.2.3 linecode=10_3 length=0.08746 units=km
New Line.SMT_10178 phases=3 bus1=253351.1.2.3 bus2= 253341.1.2.3 linecode=13_3 length=0.09936 units=km
New Line.SMT_10183 phases=3 bus1=283881.1.2.3 bus2= 300961.1.2.3 linecode=13_3 length=0.08637 units=km
New Line.SMT_10184 phases=1 bus1=232341.3 bus2= 232331.3 linecode=1_1 length=0.09735 units=km
New Line.SMT_10188 phases=1 bus1=284941.2 bus2= 284991.2 linecode=1_1 length=0.26349 units=km
New Line.SMT_10195 phases=1 bus1=232321.3 bus2= 232281.3 linecode=1_1 length=0.12408 units=km
New Line.SMT_10196 phases=3 bus1=232521.1.2.3 bus2= 232531.1.2.3 linecode=10_3 length=0.07684 units=km
New Line.SMT_10200 phases=3 bus1=271861.1.2.3 bus2= 271871.1.2.3 linecode=10_3 length=0.08523 units=km
New Line.SMT_10202 phases=3 bus1=265411.1.2.3 bus2= 265421.1.2.3 linecode=10_3 length=0.07524 units=km
New Line.SMT_10209 phases=2 bus1=263711.1.2 bus2= 263731.1.2 linecode=18_2 length=0.06351 units=km
New Line.SMT_10213 phases=3 bus1=279151.1.2.3 bus2= 279161.1.2.3 linecode=10_3 length=0.11131 units=km
New Line.SMT_10217 phases=3 bus1=231001.1.2.3 bus2= 160501.1.2.3 linecode=28_3 length=0.11456 units=km
New Line.SMT_10220 phases=3 bus1=269991.1.2.3 bus2= 584621.1.2.3 linecode=10_3 length=0.08116 units=km
New Line.SMT_10225 phases=3 bus1=322051.1.2.3 bus2= 280131.1.2.3 linecode=10_3 length=0.03689 units=km
New Line.SMT_10227 phases=3 bus1=283001.1.2.3 bus2= 283041.1.2.3 linecode=10_3 length=0.02915 units=km
New Line.SMT_10229 phases=3 bus1=279161.1.2.3 bus2= 282831.1.2.3 linecode=10_3 length=0.16162 units=km
New Line.SMT_10230 phases=1 bus1=182751.3 bus2= 182761.3 linecode=37_1 length=0.04809 units=km
New Line.SMT_10232 phases=1 bus1=22FR449.3 bus2= 272501.3 linecode=30_1 length=0.16171 units=km
New Line.SMT_10233 phases=1 bus1=282881.2 bus2= 282891.2 linecode=1_1 length=0.09985 units=km
New Line.SMT_10234 phases=1 bus1=272501.3 bus2= 272511.3 linecode=30_1 length=0.36572 units=km
New Line.SMT_10236 phases=3 bus1=267191.1.2.3 bus2= 179071.1.2.3 linecode=28_3 length=0.01976 units=km
New Line.SMT_10237 phases=3 bus1=233151.1.2.3 bus2= 233141.1.2.3 linecode=10_3 length=0.07816 units=km
New Line.SMT_10246 phases=3 bus1=108121.1.2.3 bus2= 108111.1.2.3 linecode=28_3 length=0.11345 units=km
New Line.SMT_10247 phases=3 bus1=267191.1.2.3 bus2= 220921.1.2.3 linecode=28_3 length=0.02058 units=km
New Line.SMT_10249 phases=1 bus1=232361.3 bus2= 232351.3 linecode=1_1 length=0.08376 units=km
New Line.SMT_10256 phases=1 bus1=269511.3 bus2= 269521.3 linecode=34_1 length=0.13642 units=km
New Line.SMT_10257 phases=1 bus1=272601.3 bus2= 272611.3 linecode=30_1 length=0.16867 units=km
New Line.SMT_10258 phases=3 bus1=279951.1.2.3 bus2= 279961.1.2.3 linecode=10_3 length=0.10104 units=km
New Line.SMT_10260 phases=1 bus1=251771.2 bus2= 251801.2 linecode=1_1 length=0.06237 units=km
New Line.SMT_10261 phases=2 bus1=468711.1.2 bus2= 255121.1.2 linecode=18_2 length=0.10179 units=km
New Line.SMT_10262 phases=1 bus1=361381.3 bus2= 361391.3 linecode=1_1 length=0.24048 units=km
New Line.SMT_10267 phases=3 bus1=266481.1.2.3 bus2= 271861.1.2.3 linecode=10_3 length=0.0729 units=km
New Line.SMT_10279 phases=3 bus1=271661.1.2.3 bus2= 263241.1.2.3 linecode=13_3 length=0.08349 units=km
New Line.SMT_10280 phases=3 bus1=248711.1.2.3 bus2= 248721.1.2.3 linecode=28_3 length=0.13203 units=km
New Line.SMT_10281 phases=3 bus1=296101.1.2.3 bus2= 296111.1.2.3 linecode=10_3 length=0.0858 units=km
New Line.SMT_10282 phases=3 bus1=293431.1.2.3 bus2= 293441.1.2.3 linecode=10_3 length=0.1005 units=km
New Line.SMT_10288 phases=1 bus1=201781.2 bus2= 201791.2 linecode=1_1 length=0.07424 units=km
New Line.SMT_10290 phases=3 bus1=266441.1.2.3 bus2= 266451.1.2.3 linecode=10_3 length=0.07511 units=km
New Line.SMT_10291 phases=3 bus1=248621.1.2.3 bus2= 245011.1.2.3 linecode=13_3 length=0.10013 units=km
New Line.SMT_10292 phases=3 bus1=269631.1.2.3 bus2= 269621.1.2.3 linecode=13_3 length=0.10028 units=km
New Line.SMT_10294 phases=3 bus1=351971.1.2.3 bus2= 185081.1.2.3 linecode=28_3 length=0.02332 units=km
New Line.SMT_10295 phases=3 bus1=265401.1.2.3 bus2= 265411.1.2.3 linecode=10_3 length=0.0658 units=km
New Line.SMT_10298 phases=3 bus1=334701.1.2.3 bus2= 160381.1.2.3 linecode=28_3 length=0.02202 units=km
New Line.SMT_10300 phases=3 bus1=279791.1.2.3 bus2= 279801.1.2.3 linecode=10_3 length=0.10429 units=km
New Line.SMT_10302 phases=3 bus1=296131.1.2.3 bus2= 296141.1.2.3 linecode=10_3 length=0.07906 units=km
New Line.SMT_1031 phases=3 bus1=328431.1.2.3 bus2= 207211.1.2.3 linecode=10_3 length=0.0846 units=km
New Line.SMT_10318 phases=1 bus1=186001.3 bus2= 186011.3 linecode=1_1 length=0.08693 units=km
New Line.SMT_10326 phases=3 bus1=285991.1.2.3 bus2= 285981.1.2.3 linecode=13_3 length=0.1024 units=km
New Line.SMT_10327 phases=3 bus1=117441.1.2.3 bus2= 226981.1.2.3 linecode=10_3 length=0.10104 units=km
New Line.SMT_10339 phases=3 bus1=280041.1.2.3 bus2= 280051.1.2.3 linecode=10_3 length=0.08981 units=km
New Line.SMT_10344 phases=3 bus1=181451.1.2.3 bus2= 311401.1.2.3 linecode=28_3 length=0.03041 units=km
New Line.SMT_10354 phases=3 bus1=280081.1.2.3 bus2= 280101.1.2.3 linecode=10_3 length=0.11258 units=km
New Line.SMT_10358 phases=3 bus1=279041.1.2.3 bus2= 279051.1.2.3 linecode=10_3 length=0.08865 units=km
New Line.SMT_10361 phases=1 bus1=246221.1 bus2= 246231.1 linecode=1_1 length=0.19056 units=km
New Line.SMT_10362 phases=1 bus1=358341.2 bus2= 574481.2 linecode=1_1 length=0.10183 units=km
New Line.SMT_10363 phases=3 bus1=232571.1.2.3 bus2= 232581.1.2.3 linecode=10_3 length=0.07684 units=km
New Line.SMT_10365 phases=3 bus1=250601.1.2.3 bus2= 250611.1.2.3 linecode=10_3 length=0.19541 units=km
New Line.SMT_10366 phases=3 bus1=562091.1.2.3 bus2= 299661.1.2.3 linecode=10_3 length=0.03756 units=km
New Line.SMT_10369 phases=1 bus1=358331.2 bus2= 358341.2 linecode=1_1 length=0.07767 units=km
New Line.SMT_10370 phases=3 bus1=156761.1.2.3 bus2= 282481.1.2.3 linecode=10_3 length=0.0536 units=km
New Line.SMT_10373 phases=3 bus1=283041.1.2.3 bus2= 283051.1.2.3 linecode=10_3 length=0.06708 units=km
New Line.SMT_10374 phases=3 bus1=265391.1.2.3 bus2= 265401.1.2.3 linecode=10_3 length=0.08301 units=km
New Line.SMT_10376 phases=3 bus1=252651.1.2.3 bus2= 252641.1.2.3 linecode=13_3 length=0.09334 units=km
New Line.SMT_10382 phases=3 bus1=179061.1.2.3 bus2= 179041.1.2.3 linecode=28_3 length=0.02691 units=km
New Line.SMT_10390 phases=3 bus1=264671.1.2.3 bus2= 264681.1.2.3 linecode=10_3 length=0.0997 units=km
New Line.SMT_10394 phases=3 bus1=225711.1.2.3 bus2= 285051.1.2.3 linecode=13_3 length=0.08523 units=km
New Line.SMT_10398 phases=3 bus1=280801.1.2.3 bus2= 280791.1.2.3 linecode=10_3 length=0.06403 units=km
New Line.SMT_10403 phases=3 bus1=179081.1.2.3 bus2= 163091.1.2.3 linecode=28_3 length=0.03225 units=km
New Line.SMT_10407 phases=3 bus1=286001.1.2.3 bus2= 285991.1.2.3 linecode=13_3 length=0.08828 units=km
New Line.SMT_10408 phases=3 bus1=264501.1.2.3 bus2= 264511.1.2.3 linecode=10_3 length=0.10812 units=km
New Line.SMT_10411 phases=3 bus1=252631.1.2.3 bus2= 252541.1.2.3 linecode=13_3 length=0.08062 units=km
New Line.SMT_10414 phases=3 bus1=263531.1.2.3 bus2= 263541.1.2.3 linecode=10_3 length=0.10521 units=km
New Line.SMT_10421 phases=2 bus1=255161.1.2 bus2= 255171.1.2 linecode=18_2 length=0.07823 units=km
New Line.SMT_10430 phases=3 bus1=250591.1.2.3 bus2= 250601.1.2.3 linecode=10_3 length=0.08322 units=km
New Line.SMT_10431 phases=3 bus1=262321.1.2.3 bus2= 249691.1.2.3 linecode=10_3 length=0.03547 units=km
New Line.SMT_10436 phases=3 bus1=179041.1.2.3 bus2= 179031.1.2.3 linecode=28_3 length=0.04742 units=km
New Line.SMT_10438 phases=1 bus1=160781.3 bus2= 160791.3 linecode=1_1 length=0.09962 units=km
New Line.SMT_10439 phases=3 bus1=273351.1.2.3 bus2= 273371.1.2.3 linecode=13_3 length=0.08645 units=km
New Line.SMT_10443 phases=3 bus1=249691.1.2.3 bus2= 388091.1.2.3 linecode=10_3 length=0.00395 units=km
New Line.SMT_10448 phases=3 bus1=248651.1.2.3 bus2= 359801.1.2.3 linecode=13_3 length=0.00174 units=km
New Line.SMT_10449 phases=3 bus1=201831.1.2.3 bus2= 296061.1.2.3 linecode=10_3 length=0.08762 units=km
New Line.SMT_10451 phases=1 bus1=217521.3 bus2= 217541.3 linecode=1_1 length=0.08792 units=km
New Line.SMT_10454 phases=3 bus1=261861.1.2.3 bus2= 261881.1.2.3 linecode=10_3 length=0.07257 units=km
New Line.SMT_10458 phases=3 bus1=264611.1.2.3 bus2= 264621.1.2.3 linecode=10_3 length=0.08868 units=km
New Line.SMT_10459 phases=3 bus1=282841.1.2.3 bus2= 282851.1.2.3 linecode=10_3 length=0.10179 units=km
New Line.SMT_10462 phases=3 bus1=163291.1.2.3 bus2= 163261.1.2.3 linecode=28_3 length=0.08963 units=km
New Line.SMT_10467 phases=3 bus1=233111.1.2.3 bus2= 233121.1.2.3 linecode=10_3 length=0.07058 units=km
New Line.SMT_10469 phases=1 bus1=268611.3 bus2= 268721.3 linecode=30_1 length=0.70256 units=km
New Line.SMT_10472 phases=3 bus1=280191.1.2.3 bus2= 280201.1.2.3 linecode=10_3 length=0.08989 units=km
New Line.SMT_10477 phases=3 bus1=293441.1.2.3 bus2= 293451.1.2.3 linecode=10_3 length=0.10222 units=km
New Line.SMT_10478 phases=1 bus1=418661.3 bus2= 160731.3 linecode=1_1 length=0.03471 units=km
New Line.SMT_10480 phases=1 bus1=282891.2 bus2= 282901.2 linecode=1_1 length=0.05908 units=km
New Line.SMT_10481 phases=3 bus1=246111.1.2.3 bus2= 250591.1.2.3 linecode=10_3 length=0.12969 units=km
New Line.SMT_10485 phases=1 bus1=282921.3 bus2= 282931.3 linecode=1_1 length=0.19385 units=km
New Line.SMT_10494 phases=3 bus1=22CF1186.1.2.3 bus2= 388271.1.2.3 linecode=10_3 length=0.06973 units=km
New Line.SMT_10495 phases=3 bus1=279051.1.2.3 bus2= 279061.1.2.3 linecode=10_3 length=0.09552 units=km
New Line.SMT_10504 phases=1 bus1=186011.3 bus2= 182411.3 linecode=1_1 length=0.08349 units=km
New Line.SMT_10505 phases=1 bus1=160501.3 bus2= 662761.3 linecode=1_1 length=0.08551 units=km
New Line.SMT_10507 phases=3 bus1=273371.1.2.3 bus2= 262341.1.2.3 linecode=13_3 length=0.0794 units=km
New Line.SMT_10509 phases=3 bus1=239841.1.2.3 bus2= 239881.1.2.3 linecode=13_3 length=0.08668 units=km
New Line.SMT_10513 phases=3 bus1=239881.1.2.3 bus2= 239851.1.2.3 linecode=13_3 length=0.01421 units=km
New Line.SMT_10515 phases=3 bus1=235711.1.2.3 bus2= 235721.1.2.3 linecode=13_3 length=0.08631 units=km
New Line.SMT_10516 phases=3 bus1=185091.1.2.3 bus2= 185101.1.2.3 linecode=10_3 length=0.0558 units=km
New Line.SMT_10518 phases=3 bus1=296281.1.2.3 bus2= 296291.1.2.3 linecode=10_3 length=0.08301 units=km
New Line.SMT_10520 phases=3 bus1=239851.1.2.3 bus2= 235711.1.2.3 linecode=13_3 length=0.09872 units=km
New Line.SMT_10521 phases=1 bus1=159001.1 bus2= 605111.1 linecode=30_1 length=0.11762 units=km
New Line.SMT_10522 phases=3 bus1=246741.1.2.3 bus2= 246781.1.2.3 linecode=10_3 length=0.05964 units=km
New Line.SMT_10523 phases=1 bus1=160731.3 bus2= 160741.3 linecode=1_1 length=0.07962 units=km
New Line.SMT_10528 phases=3 bus1=22CF448.1.2.3 bus2= 300971.1.2.3 linecode=10_3 length=0.09441 units=km
New Line.SMT_10529 phases=3 bus1=245011.1.2.3 bus2= 252751.1.2.3 linecode=13_3 length=0.09377 units=km
New Line.SMT_10532 phases=3 bus1=233121.1.2.3 bus2= 262991.1.2.3 linecode=10_3 length=0.09443 units=km
New Line.SMT_10535 phases=3 bus1=263641.1.2.3 bus2= 263651.1.2.3 linecode=10_3 length=0.10469 units=km
New Line.SMT_10543 phases=3 bus1=644211.1.2.3 bus2= 261861.1.2.3 linecode=10_3 length=0.0914 units=km
New Line.SMT_10546 phases=3 bus1=299731.1.2.3 bus2= 299741.1.2.3 linecode=10_3 length=0.0744 units=km
New Line.SMT_10549 phases=3 bus1=247991.1.2.3 bus2= 247981.1.2.3 linecode=13_3 length=0.09117 units=km
New Line.SMT_10550 phases=1 bus1=251831.2 bus2= 251841.2 linecode=1_1 length=0.09437 units=km
New Line.SMT_10551 phases=1 bus1=602331.2 bus2= 602321.2 linecode=1_1 length=0.19719 units=km
New Line.SMT_10552 phases=1 bus1=282901.2 bus2= 583721.2 linecode=1_1 length=0.08792 units=km
New Line.SMT_10555 phases=1 bus1=160261.3 bus2= 160271.3 linecode=1_1 length=0.19991 units=km
New Line.SMT_10558 phases=3 bus1=232391.1.2.3 bus2= 232401.1.2.3 linecode=10_3 length=0.09105 units=km
New Line.SMT_10562 phases=3 bus1=185081.1.2.3 bus2= 185091.1.2.3 linecode=10_3 length=0.03106 units=km
New Line.SMT_10569 phases=3 bus1=221371.1.2.3 bus2= 221381.1.2.3 linecode=28_3 length=0.02884 units=km
New Line.SMT_10570 phases=3 bus1=160401.1.2.3 bus2= 760881.1.2.3 linecode=10_3 length=0.00167 units=km
New Line.SMT_10572 phases=1 bus1=282911.3 bus2= 282921.3 linecode=1_1 length=0.1498 units=km
New Line.SMT_10574 phases=3 bus1=286011.1.2.3 bus2= 286001.1.2.3 linecode=13_3 length=0.11275 units=km
New Line.SMT_10575 phases=3 bus1=161361.1.2.3 bus2= 161321.1.2.3 linecode=28_3 length=0.02052 units=km
New Line.SMT_10578 phases=3 bus1=296261.1.2.3 bus2= 296281.1.2.3 linecode=10_3 length=0.08904 units=km
New Line.SMT_10580 phases=1 bus1=182781.3 bus2= 182791.3 linecode=37_1 length=0.1066 units=km
New Line.SMT_10583 phases=3 bus1=280071.1.2.3 bus2= 280081.1.2.3 linecode=10_3 length=0.10208 units=km
New Line.SMT_10584 phases=2 bus1=255131.1.2 bus2= 255161.1.2 linecode=18_2 length=0.08201 units=km
New Line.SMT_10585 phases=3 bus1=234761.1.2.3 bus2= 234751.1.2.3 linecode=13_3 length=0.08684 units=km
New Line.SMT_10586 phases=3 bus1=270001.1.2.3 bus2= 269991.1.2.3 linecode=10_3 length=0.1024 units=km
New Line.SMT_10587 phases=3 bus1=293461.1.2.3 bus2= 293471.1.2.3 linecode=10_3 length=0.10341 units=km
New Line.SMT_10591 phases=3 bus1=585201.1.2.3 bus2= 221221.1.2.3 linecode=28_3 length=0.01476 units=km
New Line.SMT_10592 phases=3 bus1=293451.1.2.3 bus2= 293461.1.2.3 linecode=10_3 length=0.09465 units=km
New Line.SMT_10598 phases=1 bus1=268711.3 bus2= 268691.3 linecode=1_1 length=0.13552 units=km
New Line.SMT_1060 phases=1 bus1=176811.1 bus2= 635871.1 linecode=1_1 length=0.17465 units=km
New Line.SMT_10600 phases=1 bus1=160771.3 bus2= 160781.3 linecode=1_1 length=0.08045 units=km
New Line.SMT_10604 phases=3 bus1=229721.1.2.3 bus2= 312261.1.2.3 linecode=28_3 length=0.0823 units=km
New Line.SMT_10608 phases=3 bus1=304101.1.2.3 bus2= 270001.1.2.3 linecode=10_3 length=0.1721 units=km
New Line.SMT_1061 phases=1 bus1=635881.1 bus2= 635891.1 linecode=1_1 length=0.10846 units=km
New Line.SMT_10613 phases=1 bus1=251841.2 bus2= 251921.2 linecode=1_1 length=0.07284 units=km
New Line.SMT_10620 phases=3 bus1=252541.1.2.3 bus2= 252531.1.2.3 linecode=13_3 length=0.07145 units=km
New Line.SMT_10622 phases=1 bus1=274431.1 bus2= 274441.1 linecode=1_1 length=0.10955 units=km
New Line.SMT_10628 phases=3 bus1=279061.1.2.3 bus2= 293391.1.2.3 linecode=10_3 length=0.1024 units=km
New Line.SMT_10630 phases=3 bus1=246041.1.2.3 bus2= 246051.1.2.3 linecode=10_3 length=0.13536 units=km
New Line.SMT_10634 phases=1 bus1=158081.3 bus2= 162321.3 linecode=1_1 length=0.08099 units=km
New Line.SMT_10639 phases=3 bus1=184941.1.2.3 bus2= 373951.1.2.3 linecode=28_3 length=0.05471 units=km
New Line.SMT_10641 phases=3 bus1=265311.1.2.3 bus2= 265331.1.2.3 linecode=10_3 length=0.12714 units=km
New Line.SMT_10648 phases=1 bus1=357701.3 bus2= 361381.3 linecode=1_1 length=0.08627 units=km
New Line.SMT_10650 phases=3 bus1=280101.1.2.3 bus2= 280121.1.2.3 linecode=10_3 length=0.11769 units=km
New Line.SMT_10651 phases=1 bus1=160791.3 bus2= 160801.3 linecode=1_1 length=0.08322 units=km
New Line.SMT_10656 phases=1 bus1=233841.3 bus2= 233851.3 linecode=1_1 length=0.10479 units=km
New Line.SMT_10659 phases=3 bus1=479051.1.2.3 bus2= 184951.1.2.3 linecode=28_3 length=0.04061 units=km
New Line.SMT_10661 phases=3 bus1=252341.1.2.3 bus2= 252351.1.2.3 linecode=10_3 length=0.10904 units=km
New Line.SMT_10664 phases=1 bus1=361391.3 bus2= 361401.3 linecode=1_1 length=0.14309 units=km
New Line.SMT_10669 phases=2 bus1=262171.1.2 bus2= 244641.1.2 linecode=18_2 length=0.11625 units=km
New Line.SMT_10679 phases=1 bus1=239901.3 bus2= 239891.3 linecode=1_1 length=0.06515 units=km
New Line.SMT_10680 phases=1 bus1=239921.3 bus2= 239931.3 linecode=1_1 length=0.10198 units=km
New Line.SMT_10688 phases=1 bus1=233851.3 bus2= 233861.3 linecode=1_1 length=0.09483 units=km
New Line.SMT_10694 phases=2 bus1=262151.1.2 bus2= 262161.1.2 linecode=18_2 length=0.11404 units=km
New Line.SMT_10699 phases=1 bus1=160711.3 bus2= 160721.3 linecode=1_1 length=0.08927 units=km
New Line.SMT_10712 phases=1 bus1=344891.3 bus2= 161581.3 linecode=1_1 length=0.10647 units=km
New Line.SMT_10715 phases=1 bus1=160761.3 bus2= 160771.3 linecode=1_1 length=0.10044 units=km
New Line.SMT_10717 phases=1 bus1=227931.1 bus2= 228361.1 linecode=1_1 length=0.11871 units=km
New Line.SMT_10726 phases=2 bus1=233441.1.2 bus2= 233471.1.2 linecode=18_2 length=0.0775 units=km
New Line.SMT_10727 phases=3 bus1=263541.1.2.3 bus2= 263581.1.2.3 linecode=10_3 length=0.1208 units=km
New Line.SMT_10734 phases=1 bus1=240901.1 bus2= 240911.1 linecode=29_1 length=0.09034 units=km
New Line.SMT_10736 phases=1 bus1=227861.1 bus2= 227871.1 linecode=1_1 length=0.12258 units=km
New Line.SMT_10745 phases=1 bus1=252381.1 bus2= 240861.1 linecode=29_1 length=0.0779 units=km
New Line.SMT_10746 phases=1 bus1=233751.3 bus2= 233781.3 linecode=1_1 length=0.11035 units=km
New Line.SMT_10748 phases=1 bus1=161561.3 bus2= 161571.3 linecode=1_1 length=0.12756 units=km
New Line.SMT_10750 phases=1 bus1=160701.3 bus2= 160711.3 linecode=1_1 length=0.08122 units=km
New Line.SMT_10751 phases=3 bus1=241021.1.2.3 bus2= 241031.1.2.3 linecode=10_3 length=0.09898 units=km
New Line.SMT_10760 phases=3 bus1=299641.1.2.3 bus2= 299631.1.2.3 linecode=10_3 length=0.02484 units=km
New Line.SMT_10782 phases=1 bus1=228451.1 bus2= 228461.1 linecode=1_1 length=0.10791 units=km
New Line.SMT_10789 phases=1 bus1=239901.3 bus2= 348721.3 linecode=1_1 length=0.16325 units=km
New Line.SMT_10791 phases=3 bus1=184951.1.2.3 bus2= 373961.1.2.3 linecode=28_3 length=0.0378 units=km
New Line.SMT_10795 phases=2 bus1=245731.1.2 bus2= 246521.1.2 linecode=18_2 length=0.11336 units=km
New Line.SMT_10799 phases=1 bus1=160741.3 bus2= 160761.3 linecode=1_1 length=0.07489 units=km
New Line.SMT_10801 phases=1 bus1=227761.1 bus2= 227771.1 linecode=1_1 length=0.13688 units=km
New Line.SMT_10803 phases=3 bus1=240991.1.2.3 bus2= 241001.1.2.3 linecode=10_3 length=0.09214 units=km
New Line.SMT_10811 phases=1 bus1=228361.1 bus2= 228371.1 linecode=1_1 length=0.08256 units=km
New Line.SMT_10812 phases=1 bus1=240891.1 bus2= 240901.1 linecode=29_1 length=0.10651 units=km
New Line.SMT_10815 phases=3 bus1=252291.1.2.3 bus2= 252311.1.2.3 linecode=10_3 length=0.08641 units=km
New Line.SMT_1082 phases=1 bus1=635891.1 bus2= 635901.1 linecode=1_1 length=0.07467 units=km
New Line.SMT_10824 phases=3 bus1=22FR444.1.2.3 bus2= 366921.1.2.3 linecode=10_3 length=0.04782 units=km
New Line.SMT_10825 phases=1 bus1=228361.1 bus2= 228411.1 linecode=1_1 length=0.09703 units=km
New Line.SMT_10828 phases=2 bus1=274411.1.2 bus2= 274421.1.2 linecode=18_2 length=0.07741 units=km
New Line.SMT_10830 phases=2 bus1=233471.1.2 bus2= 233461.1.2 linecode=18_2 length=0.07363 units=km
New Line.SMT_10833 phases=1 bus1=239931.3 bus2= 239941.3 linecode=1_1 length=0.1012 units=km
New Line.SMT_10834 phases=3 bus1=184961.1.2.3 bus2= 254461.1.2.3 linecode=10_3 length=0.005 units=km
New Line.SMT_10844 phases=3 bus1=252711.1.2.3 bus2= 252691.1.2.3 linecode=13_3 length=0.09886 units=km
New Line.SMT_10852 phases=1 bus1=242481.3 bus2= 197771.3 linecode=34_1 length=0.39468 units=km
New Line.SMT_10853 phases=1 bus1=186021.3 bus2= 186031.3 linecode=1_1 length=0.1037 units=km
New Line.SMT_10856 phases=3 bus1=246031.1.2.3 bus2= 246041.1.2.3 linecode=10_3 length=0.07716 units=km
New Line.SMT_10858 phases=1 bus1=304101.2 bus2= 270011.2 linecode=1_1 length=0.10986 units=km
New Line.SMT_10867 phases=1 bus1=227801.1 bus2= 227811.1 linecode=1_1 length=0.07212 units=km
New Line.SMT_10868 phases=3 bus1=211261.1.2.3 bus2= 211441.1.2.3 linecode=10_3 length=0.06129 units=km
New Line.SMT_10872 phases=1 bus1=217541.3 bus2= 217551.3 linecode=1_1 length=0.10406 units=km
New Line.SMT_10876 phases=1 bus1=227851.1 bus2= 227861.1 linecode=1_1 length=0.09193 units=km
New Line.SMT_10893 phases=3 bus1=665331.1.2.3 bus2= 245021.1.2.3 linecode=10_3 length=0.13562 units=km
New Line.SMT_10895 phases=1 bus1=289891.2 bus2= 289901.2 linecode=1_1 length=0.09415 units=km
New Line.SMT_10898 phases=1 bus1=233811.3 bus2= 233821.3 linecode=1_1 length=0.09218 units=km
New Line.SMT_10905 phases=1 bus1=182421.3 bus2= 200481.3 linecode=1_1 length=0.08401 units=km
New Line.SMT_10906 phases=3 bus1=683001.1.2.3 bus2= 211361.1.2.3 linecode=10_3 length=0.07341 units=km
New Line.SMT_10908 phases=1 bus1=274441.1 bus2= 274451.1 linecode=1_1 length=0.09502 units=km
New Line.SMT_10922 phases=3 bus1=289831.1.2.3 bus2= 289841.1.2.3 linecode=10_3 length=0.10297 units=km
New Line.SMT_10926 phases=1 bus1=227811.1 bus2= 227821.1 linecode=1_1 length=0.1112 units=km
New Line.SMT_10947 phases=3 bus1=299651.1.2.3 bus2= 299641.1.2.3 linecode=10_3 length=0.04472 units=km
New Line.SMT_10954 phases=1 bus1=262991.3 bus2= 231641.3 linecode=1_1 length=0.08786 units=km
New Line.SMT_10955 phases=3 bus1=232561.1.2.3 bus2= 232571.1.2.3 linecode=10_3 length=0.07262 units=km
New Line.SMT_10960 phases=1 bus1=231641.3 bus2= 248791.3 linecode=1_1 length=0.08344 units=km
New Line.SMT_10981 phases=1 bus1=182411.3 bus2= 182421.3 linecode=1_1 length=0.09808 units=km
New Line.SMT_10996 phases=3 bus1=246791.1.2.3 bus2= 252291.1.2.3 linecode=10_3 length=0.09563 units=km
New Line.SMT_10998 phases=1 bus1=217601.3 bus2= 158081.3 linecode=1_1 length=0.11827 units=km
New Line.SMT_10999 phases=1 bus1=22CF460.2 bus2= 244781.2 linecode=1_1 length=0.74066 units=km
New Line.SMT_11 phases=1 bus1=265541.2 bus2= 265531.2 linecode=1_1 length=0.17741 units=km
New Line.SMT_11000 phases=3 bus1=184951.1.2.3 bus2= 184961.1.2.3 linecode=10_3 length=0.02335 units=km
New Line.SMT_11001 phases=1 bus1=233801.3 bus2= 233811.3 linecode=1_1 length=0.08756 units=km
New Line.SMT_11005 phases=1 bus1=228461.1 bus2= 228471.1 linecode=1_1 length=0.14318 units=km
New Line.SMT_11009 phases=1 bus1=228431.1 bus2= 228441.1 linecode=1_1 length=0.08322 units=km
New Line.SMT_11016 phases=1 bus1=290811.1 bus2= 290821.1 linecode=1_1 length=0.155 units=km
New Line.SMT_11035 phases=1 bus1=378011.3 bus2= 378021.3 linecode=1_1 length=0.12841 units=km
New Line.SMT_11049 phases=1 bus1=239971.3 bus2= 239981.3 linecode=1_1 length=0.19409 units=km
New Line.SMT_11057 phases=2 bus1=289881.1.2 bus2= 289891.1.2 linecode=18_2 length=0.10213 units=km
New Line.SMT_11060 phases=1 bus1=515541.3 bus2= 230641.3 linecode=34_1 length=0.16864 units=km
New Line.SMT_11064 phases=2 bus1=245601.1.2 bus2= 245611.1.2 linecode=18_2 length=0.11316 units=km
New Line.SMT_11077 phases=1 bus1=231031.3 bus2= 557441.3 linecode=1_1 length=0.03808 units=km
New Line.SMT_11078 phases=1 bus1=18CF1073.3 bus2= 557451.3 linecode=1_1 length=0.06365 units=km
New Line.SMT_11094 phases=3 bus1=241001.1.2.3 bus2= 241011.1.2.3 linecode=10_3 length=0.08065 units=km
New Line.SMT_11096 phases=2 bus1=262111.1.2 bus2= 262131.1.2 linecode=18_2 length=0.09304 units=km