New circuit.CER3_2_34 baseKV=13.8 phases=3 bus1=AL119212_1 pu=1
