New Transformer.IT20_2411 phases=1 Windings=3 Xhl=0.5 %loadLoss =0.5 %noloadLoss =0.2
 ~ wdg=1 bus=23880_1.3 conn= Wye kv=7.97 kva=10 tap=0.956
 ~ wdg=2 bus=BT_20_2411.1.0  conn= Wye kv=0.22 kva=10 tap=1
 ~ wdg=3 bus=BT_20_2411.0.2  conn= Wye kv=0.22 kva=10 tap=1

New Transformer.IT20_4805 phases=1 Windings=3 Xhl=0.5 %loadLoss =0.5 %noloadLoss =0.2
 ~ wdg=1 bus=106864_1.1 conn= Wye kv=7.97 kva=5 tap=1
 ~ wdg=2 bus=BT_20_4805.1.0  conn= Wye kv=0.22 kva=5 tap=1
 ~ wdg=3 bus=BT_20_4805.0.2  conn= Wye kv=0.22 kva=5 tap=1

New Transformer.IT32_10126 phases=1 Windings=3 Xhl=0.5 %loadLoss =0.5 %noloadLoss =0.2
 ~ wdg=1 bus=142035_1.1 conn= Wye kv=7.97 kva=25 tap=0.956
 ~ wdg=2 bus=BT_32_10126.1.0  conn= Wye kv=0.22 kva=25 tap=1
 ~ wdg=3 bus=BT_32_10126.0.2  conn= Wye kv=0.22 kva=25 tap=1

New Transformer.IT32_10236 phases=1 Windings=3 Xhl=0.5 %loadLoss =0.5 %noloadLoss =0.2
 ~ wdg=1 bus=16980_1.3 conn= Wye kv=7.97 kva=10 tap=0.956
 ~ wdg=2 bus=BT_32_10236.1.0  conn= Wye kv=0.22 kva=10 tap=1
 ~ wdg=3 bus=BT_32_10236.0.2  conn= Wye kv=0.22 kva=10 tap=1

New Transformer.IT32_10514 phases=3 Windings=2 Xhl=0.5 %loadLoss =1.81 %noloadLoss =0.47
 ~ wdg=1 bus=17619_1 conn= Delta kv=13.8 kva=30 tap=1
 ~ wdg=2 bus=BT_32_10514 conn= Wye kv=0.38 kva=30 tap=1

New Transformer.IT32_1086 phases=1 Windings=3 Xhl=0.5 %loadLoss =0.5 %noloadLoss =0.2
 ~ wdg=1 bus=18796_1.3 conn= Wye kv=7.97 kva=20 tap=1
 ~ wdg=2 bus=BT_32_1086.1.0  conn= Wye kv=0.22 kva=20 tap=1
 ~ wdg=3 bus=BT_32_1086.0.2  conn= Wye kv=0.22 kva=20 tap=1

New Transformer.IT32_1101 phases=1 Windings=3 Xhl=0.5 %loadLoss =0.5 %noloadLoss =0.2
 ~ wdg=1 bus=16983_1.3 conn= Wye kv=7.97 kva=10 tap=0.913
 ~ wdg=2 bus=BT_32_1101.1.0  conn= Wye kv=0.22 kva=10 tap=1
 ~ wdg=3 bus=BT_32_1101.0.2  conn= Wye kv=0.22 kva=10 tap=1

New Transformer.IT32_1124 phases=3 Windings=2 Xhl=0.5 %loadLoss =1.65 %noloadLoss =0.41
 ~ wdg=1 bus=17196_1 conn= Delta kv=13.8 kva=45 tap=0.957
 ~ wdg=2 bus=BT_32_1124 conn= Wye kv=0.38 kva=45 tap=1

New Transformer.IT32_1125 phases=1 Windings=3 Xhl=0.5 %loadLoss =0.5 %noloadLoss =0.2
 ~ wdg=1 bus=17623_1.3 conn= Wye kv=7.97 kva=25 tap=0.956
 ~ wdg=2 bus=BT_32_1125.1.0  conn= Wye kv=0.22 kva=25 tap=1
 ~ wdg=3 bus=BT_32_1125.0.2  conn= Wye kv=0.22 kva=25 tap=1

New Transformer.IT32_1126 phases=1 Windings=3 Xhl=0.5 %loadLoss =0.5 %noloadLoss =0.2
 ~ wdg=1 bus=17205_1.3 conn= Wye kv=7.97 kva=25 tap=0.87
 ~ wdg=2 bus=BT_32_1126.1.0  conn= Wye kv=0.22 kva=25 tap=1
 ~ wdg=3 bus=BT_32_1126.0.2  conn= Wye kv=0.22 kva=25 tap=1

New Transformer.IT32_1127 phases=1 Windings=3 Xhl=0.5 %loadLoss =0.5 %noloadLoss =0.2
 ~ wdg=1 bus=127339_1.1 conn= Wye kv=7.97 kva=10 tap=0.913
 ~ wdg=2 bus=BT_32_1127.1.0  conn= Wye kv=0.22 kva=10 tap=1
 ~ wdg=3 bus=BT_32_1127.0.2  conn= Wye kv=0.22 kva=10 tap=1

New Transformer.IT32_1128 phases=1 Windings=3 Xhl=0.5 %loadLoss =0.5 %noloadLoss =0.2
 ~ wdg=1 bus=39894_1.3 conn= Wye kv=7.97 kva=15 tap=0.913
 ~ wdg=2 bus=BT_32_1128.1.0  conn= Wye kv=0.22 kva=15 tap=1
 ~ wdg=3 bus=BT_32_1128.0.2  conn= Wye kv=0.22 kva=15 tap=1

New Transformer.IT32_1129 phases=1 Windings=3 Xhl=0.5 %loadLoss =0.5 %noloadLoss =0.2
 ~ wdg=1 bus=19040_1.1 conn= Wye kv=7.97 kva=15 tap=0.87
 ~ wdg=2 bus=BT_32_1129.1.0  conn= Wye kv=0.22 kva=15 tap=1
 ~ wdg=3 bus=BT_32_1129.0.2  conn= Wye kv=0.22 kva=15 tap=1

New Transformer.IT32_1130 phases=1 Windings=3 Xhl=0.5 %loadLoss =0.5 %noloadLoss =0.2
 ~ wdg=1 bus=19055_1.2 conn= Wye kv=7.97 kva=15 tap=0.956
 ~ wdg=2 bus=BT_32_1130.1.0  conn= Wye kv=0.22 kva=15 tap=1
 ~ wdg=3 bus=BT_32_1130.0.2  conn= Wye kv=0.22 kva=15 tap=1

New Transformer.IT32_1131 phases=1 Windings=3 Xhl=0.5 %loadLoss =0.5 %noloadLoss =0.2
 ~ wdg=1 bus=114371_1.1 conn= Wye kv=7.97 kva=15 tap=0.913
 ~ wdg=2 bus=BT_32_1131.1.0  conn= Wye kv=0.22 kva=15 tap=1
 ~ wdg=3 bus=BT_32_1131.0.2  conn= Wye kv=0.22 kva=15 tap=1

New Transformer.IT32_1132 phases=1 Windings=3 Xhl=0.5 %loadLoss =0.5 %noloadLoss =0.2
 ~ wdg=1 bus=99585_1.3 conn= Wye kv=7.97 kva=15 tap=0.956
 ~ wdg=2 bus=BT_32_1132.1.0  conn= Wye kv=0.22 kva=15 tap=1
 ~ wdg=3 bus=BT_32_1132.0.2  conn= Wye kv=0.22 kva=15 tap=1

New Transformer.IT32_1137 phases=1 Windings=3 Xhl=0.5 %loadLoss =0.5 %noloadLoss =0.2
 ~ wdg=1 bus=117797_1.3 conn= Wye kv=7.97 kva=10 tap=0.956
 ~ wdg=2 bus=BT_32_1137.1.0  conn= Wye kv=0.22 kva=10 tap=1
 ~ wdg=3 bus=BT_32_1137.0.2  conn= Wye kv=0.22 kva=10 tap=1

New Transformer.IT32_1151 phases=1 Windings=3 Xhl=0.5 %loadLoss =0.5 %noloadLoss =0.2
 ~ wdg=1 bus=19033_1.3 conn= Wye kv=7.97 kva=10 tap=0.913
 ~ wdg=2 bus=BT_32_1151.1.0  conn= Wye kv=0.22 kva=10 tap=1
 ~ wdg=3 bus=BT_32_1151.0.2  conn= Wye kv=0.22 kva=10 tap=1

New Transformer.IT32_1152 phases=1 Windings=3 Xhl=0.5 %loadLoss =0.5 %noloadLoss =0.2
 ~ wdg=1 bus=114379_1.3 conn= Wye kv=7.97 kva=5 tap=0.87
 ~ wdg=2 bus=BT_32_1152.1.0  conn= Wye kv=0.22 kva=5 tap=1
 ~ wdg=3 bus=BT_32_1152.0.2  conn= Wye kv=0.22 kva=5 tap=1

New Transformer.IT32_1156 phases=1 Windings=3 Xhl=0.5 %loadLoss =0.5 %noloadLoss =0.2
 ~ wdg=1 bus=67103_1.2 conn= Wye kv=7.97 kva=25 tap=0.87
 ~ wdg=2 bus=BT_32_1156.1.0  conn= Wye kv=0.22 kva=25 tap=1
 ~ wdg=3 bus=BT_32_1156.0.2  conn= Wye kv=0.22 kva=25 tap=1

New Transformer.IT32_1430 phases=1 Windings=3 Xhl=0.5 %loadLoss =0.5 %noloadLoss =0.2
 ~ wdg=1 bus=24263_1.2 conn= Wye kv=7.97 kva=25 tap=0.87
 ~ wdg=2 bus=BT_32_1430.1.0  conn= Wye kv=0.22 kva=25 tap=1
 ~ wdg=3 bus=BT_32_1430.0.2  conn= Wye kv=0.22 kva=25 tap=1

New Transformer.IT32_1435 phases=3 Windings=2 Xhl=0.5 %loadLoss =1.65 %noloadLoss =0.41
 ~ wdg=1 bus=15605_1 conn= Delta kv=13.8 kva=45 tap=0.913
 ~ wdg=2 bus=BT_32_1435 conn= Wye kv=0.38 kva=45 tap=1

New Transformer.IT32_1478 phases=1 Windings=3 Xhl=0.5 %loadLoss =0.5 %noloadLoss =0.2
 ~ wdg=1 bus=18780_1.3 conn= Wye kv=7.97 kva=10 tap=1
 ~ wdg=2 bus=BT_32_1478.1.0  conn= Wye kv=0.22 kva=10 tap=1
 ~ wdg=3 bus=BT_32_1478.0.2  conn= Wye kv=0.22 kva=10 tap=1

New Transformer.IT32_1663 phases=1 Windings=3 Xhl=0.5 %loadLoss =0.5 %noloadLoss =0.2
 ~ wdg=1 bus=14481_1.3 conn= Wye kv=7.97 kva=25 tap=0.913
 ~ wdg=2 bus=BT_32_1663.1.0  conn= Wye kv=0.22 kva=25 tap=1
 ~ wdg=3 bus=BT_32_1663.0.2  conn= Wye kv=0.22 kva=25 tap=1

New Transformer.IT32_1664 phases=1 Windings=3 Xhl=0.5 %loadLoss =0.5 %noloadLoss =0.2
 ~ wdg=1 bus=14491_1.3 conn= Wye kv=7.97 kva=10 tap=0.913
 ~ wdg=2 bus=BT_32_1664.1.0  conn= Wye kv=0.22 kva=10 tap=1
 ~ wdg=3 bus=BT_32_1664.0.2  conn= Wye kv=0.22 kva=10 tap=1

New Transformer.IT32_1715 phases=1 Windings=3 Xhl=0.5 %loadLoss =0.5 %noloadLoss =0.2
 ~ wdg=1 bus=17000_1.3 conn= Wye kv=7.97 kva=15 tap=0.913
 ~ wdg=2 bus=BT_32_1715.1.0  conn= Wye kv=0.22 kva=15 tap=1
 ~ wdg=3 bus=BT_32_1715.0.2  conn= Wye kv=0.22 kva=15 tap=1

New Transformer.IT32_1716 phases=3 Windings=2 Xhl=0.5 %loadLoss =1.65 %noloadLoss =0.41
 ~ wdg=1 bus=56854_1 conn= Delta kv=13.8 kva=45 tap=0.957
 ~ wdg=2 bus=BT_32_1716 conn= Wye kv=0.38 kva=45 tap=1

New Transformer.IT32_1744 phases=1 Windings=3 Xhl=0.5 %loadLoss =0.5 %noloadLoss =0.2
 ~ wdg=1 bus=17191_1.2 conn= Wye kv=7.97 kva=10 tap=0.956
 ~ wdg=2 bus=BT_32_1744.1.0  conn= Wye kv=0.22 kva=10 tap=1
 ~ wdg=3 bus=BT_32_1744.0.2  conn= Wye kv=0.22 kva=10 tap=1

New Transformer.IT32_1757 phases=1 Windings=3 Xhl=0.5 %loadLoss =0.5 %noloadLoss =0.2
 ~ wdg=1 bus=112670_1.2 conn= Wye kv=7.97 kva=15 tap=0.913
 ~ wdg=2 bus=BT_32_1757.1.0  conn= Wye kv=0.22 kva=15 tap=1
 ~ wdg=3 bus=BT_32_1757.0.2  conn= Wye kv=0.22 kva=15 tap=1

New Transformer.IT32_1760 phases=1 Windings=3 Xhl=0.5 %loadLoss =0.5 %noloadLoss =0.2
 ~ wdg=1 bus=65778_1.2 conn= Wye kv=7.97 kva=10 tap=1
 ~ wdg=2 bus=BT_32_1760.1.0  conn= Wye kv=0.22 kva=10 tap=1
 ~ wdg=3 bus=BT_32_1760.0.2  conn= Wye kv=0.22 kva=10 tap=1

New Transformer.IT32_1887 phases=1 Windings=3 Xhl=0.5 %loadLoss =0.5 %noloadLoss =0.2
 ~ wdg=1 bus=40409_1.3 conn= Wye kv=7.97 kva=15 tap=0.956
 ~ wdg=2 bus=BT_32_1887.1.0  conn= Wye kv=0.22 kva=15 tap=1
 ~ wdg=3 bus=BT_32_1887.0.2  conn= Wye kv=0.22 kva=15 tap=1

New Transformer.IT32_1903 phases=1 Windings=3 Xhl=0.5 %loadLoss =0.5 %noloadLoss =0.2
 ~ wdg=1 bus=19436_1.3 conn= Wye kv=7.97 kva=10 tap=0.913
 ~ wdg=2 bus=BT_32_1903.1.0  conn= Wye kv=0.22 kva=10 tap=1
 ~ wdg=3 bus=BT_32_1903.0.2  conn= Wye kv=0.22 kva=10 tap=1

New Transformer.IT32_1932 phases=1 Windings=3 Xhl=0.5 %loadLoss =0.5 %noloadLoss =0.2
 ~ wdg=1 bus=29051_1.2 conn= Wye kv=7.97 kva=5 tap=1
 ~ wdg=2 bus=BT_32_1932.1.0  conn= Wye kv=0.22 kva=5 tap=1
 ~ wdg=3 bus=BT_32_1932.0.2  conn= Wye kv=0.22 kva=5 tap=1

New Transformer.IT32_2029 phases=1 Windings=3 Xhl=0.5 %loadLoss =0.5 %noloadLoss =0.2
 ~ wdg=1 bus=18749_1.3 conn= Wye kv=7.97 kva=15 tap=0.956
 ~ wdg=2 bus=BT_32_2029.1.0  conn= Wye kv=0.22 kva=15 tap=1
 ~ wdg=3 bus=BT_32_2029.0.2  conn= Wye kv=0.22 kva=15 tap=1

New Transformer.IT32_2113 phases=1 Windings=3 Xhl=0.5 %loadLoss =0.5 %noloadLoss =0.2
 ~ wdg=1 bus=40762_1.3 conn= Wye kv=7.97 kva=25 tap=0.913
 ~ wdg=2 bus=BT_32_2113.1.0  conn= Wye kv=0.22 kva=25 tap=1
 ~ wdg=3 bus=BT_32_2113.0.2  conn= Wye kv=0.22 kva=25 tap=1

New Transformer.IT32_2267 phases=3 Windings=2 Xhl=0.5 %loadLoss =1.65 %noloadLoss =0.41
 ~ wdg=1 bus=127412_1 conn= Delta kv=13.8 kva=45 tap=0.913
 ~ wdg=2 bus=BT_32_2267 conn= Wye kv=0.38 kva=45 tap=1

New Transformer.IT32_2364 phases=1 Windings=3 Xhl=0.5 %loadLoss =0.5 %noloadLoss =0.2
 ~ wdg=1 bus=18761_1.3 conn= Wye kv=7.97 kva=15 tap=0.956
 ~ wdg=2 bus=BT_32_2364.1.0  conn= Wye kv=0.22 kva=15 tap=1
 ~ wdg=3 bus=BT_32_2364.0.2  conn= Wye kv=0.22 kva=15 tap=1

New Transformer.IT32_2781 phases=1 Windings=3 Xhl=0.5 %loadLoss =0.5 %noloadLoss =0.2
 ~ wdg=1 bus=18751_1.3 conn= Wye kv=7.97 kva=5 tap=0.956
 ~ wdg=2 bus=BT_32_2781.1.0  conn= Wye kv=0.22 kva=5 tap=1
 ~ wdg=3 bus=BT_32_2781.0.2  conn= Wye kv=0.22 kva=5 tap=1

New Transformer.IT32_2802 phases=1 Windings=3 Xhl=0.5 %loadLoss =0.5 %noloadLoss =0.2
 ~ wdg=1 bus=30931_1.3 conn= Wye kv=7.97 kva=15 tap=0.956
 ~ wdg=2 bus=BT_32_2802.1.0  conn= Wye kv=0.22 kva=15 tap=1
 ~ wdg=3 bus=BT_32_2802.0.2  conn= Wye kv=0.22 kva=15 tap=1

New Transformer.IT32_2839 phases=1 Windings=3 Xhl=0.5 %loadLoss =0.5 %noloadLoss =0.2
 ~ wdg=1 bus=17012_1.3 conn= Wye kv=7.97 kva=15 tap=0.913
 ~ wdg=2 bus=BT_32_2839.1.0  conn= Wye kv=0.22 kva=15 tap=1
 ~ wdg=3 bus=BT_32_2839.0.2  conn= Wye kv=0.22 kva=15 tap=1

New Transformer.IT32_2909 phases=1 Windings=3 Xhl=0.5 %loadLoss =0.5 %noloadLoss =0.2
 ~ wdg=1 bus=29047_1.2 conn= Wye kv=7.97 kva=7.5 tap=0.956
 ~ wdg=2 bus=BT_32_2909.1.0  conn= Wye kv=0.22 kva=7.5 tap=1
 ~ wdg=3 bus=BT_32_2909.0.2  conn= Wye kv=0.22 kva=7.5 tap=1

New Transformer.IT32_2955 phases=3 Windings=2 Xhl=0.5 %loadLoss =1.81 %noloadLoss =0.47
 ~ wdg=1 bus=30100_1 conn= Delta kv=13.8 kva=30 tap=0.913
 ~ wdg=2 bus=BT_32_2955 conn= Wye kv=0.38 kva=30 tap=1

New Transformer.IT32_3043 phases=1 Windings=3 Xhl=0.5 %loadLoss =0.5 %noloadLoss =0.2
 ~ wdg=1 bus=34031_1.3 conn= Wye kv=7.97 kva=25 tap=0.87
 ~ wdg=2 bus=BT_32_3043.1.0  conn= Wye kv=0.22 kva=25 tap=1
 ~ wdg=3 bus=BT_32_3043.0.2  conn= Wye kv=0.22 kva=25 tap=1

New Transformer.IT32_3307 phases=3 Windings=2 Xhl=0.5 %loadLoss =1.81 %noloadLoss =0.47
 ~ wdg=1 bus=36221_1 conn= Delta kv=13.8 kva=30 tap=0.913
 ~ wdg=2 bus=BT_32_3307 conn= Wye kv=0.38 kva=30 tap=1

New Transformer.IT32_3316 phases=1 Windings=3 Xhl=0.5 %loadLoss =0.5 %noloadLoss =0.2
 ~ wdg=1 bus=40750_1.3 conn= Wye kv=7.97 kva=15 tap=0.956
 ~ wdg=2 bus=BT_32_3316.1.0  conn= Wye kv=0.22 kva=15 tap=1
 ~ wdg=3 bus=BT_32_3316.0.2  conn= Wye kv=0.22 kva=15 tap=1

New Transformer.IT32_3367 phases=3 Windings=2 Xhl=0.5 %loadLoss =1.81 %noloadLoss =0.47
 ~ wdg=1 bus=37228_1 conn= Delta kv=13.8 kva=30 tap=0.957
 ~ wdg=2 bus=BT_32_3367 conn= Wye kv=0.38 kva=30 tap=1

New Transformer.IT32_3634 phases=1 Windings=3 Xhl=0.5 %loadLoss =0.5 %noloadLoss =0.2
 ~ wdg=1 bus=49241_1.3 conn= Wye kv=7.97 kva=10 tap=0.913
 ~ wdg=2 bus=BT_32_3634.1.0  conn= Wye kv=0.22 kva=10 tap=1
 ~ wdg=3 bus=BT_32_3634.0.2  conn= Wye kv=0.22 kva=10 tap=1

New Transformer.IT32_3642 phases=1 Windings=3 Xhl=0.5 %loadLoss =0.5 %noloadLoss =0.2
 ~ wdg=1 bus=75256_1.2 conn= Wye kv=7.97 kva=25 tap=1
 ~ wdg=2 bus=BT_32_3642.1.0  conn= Wye kv=0.22 kva=25 tap=1
 ~ wdg=3 bus=BT_32_3642.0.2  conn= Wye kv=0.22 kva=25 tap=1

New Transformer.IT32_3644 phases=3 Windings=2 Xhl=0.5 %loadLoss =1.81 %noloadLoss =0.47
 ~ wdg=1 bus=90340_1 conn= Delta kv=13.8 kva=30 tap=0.957
 ~ wdg=2 bus=BT_32_3644 conn= Wye kv=0.38 kva=30 tap=1

New Transformer.IT32_3760 phases=1 Windings=3 Xhl=0.5 %loadLoss =0.5 %noloadLoss =0.2
 ~ wdg=1 bus=66984_1.2 conn= Wye kv=7.97 kva=10 tap=0.956
 ~ wdg=2 bus=BT_32_3760.1.0  conn= Wye kv=0.22 kva=10 tap=1
 ~ wdg=3 bus=BT_32_3760.0.2  conn= Wye kv=0.22 kva=10 tap=1

New Transformer.IT32_3858 phases=1 Windings=3 Xhl=0.5 %loadLoss =0.5 %noloadLoss =0.2
 ~ wdg=1 bus=93900_1.1 conn= Wye kv=7.97 kva=15 tap=0.913
 ~ wdg=2 bus=BT_32_3858.1.0  conn= Wye kv=0.22 kva=15 tap=1
 ~ wdg=3 bus=BT_32_3858.0.2  conn= Wye kv=0.22 kva=15 tap=1

New Transformer.IT32_3889 phases=1 Windings=3 Xhl=0.5 %loadLoss =0.5 %noloadLoss =0.2
 ~ wdg=1 bus=75751_1.2 conn= Wye kv=7.97 kva=10 tap=0.956
 ~ wdg=2 bus=BT_32_3889.1.0  conn= Wye kv=0.22 kva=10 tap=1
 ~ wdg=3 bus=BT_32_3889.0.2  conn= Wye kv=0.22 kva=10 tap=1

New Transformer.IT32_4040 phases=1 Windings=3 Xhl=0.5 %loadLoss =0.5 %noloadLoss =0.2
 ~ wdg=1 bus=17006_1.3 conn= Wye kv=7.97 kva=10 tap=0.913
 ~ wdg=2 bus=BT_32_4040.1.0  conn= Wye kv=0.22 kva=10 tap=1
 ~ wdg=3 bus=BT_32_4040.0.2  conn= Wye kv=0.22 kva=10 tap=1

New Transformer.IT32_4074 phases=1 Windings=3 Xhl=0.5 %loadLoss =0.5 %noloadLoss =0.2
 ~ wdg=1 bus=96222_1.3 conn= Wye kv=7.97 kva=25 tap=0.956
 ~ wdg=2 bus=BT_32_4074.1.0  conn= Wye kv=0.22 kva=25 tap=1
 ~ wdg=3 bus=BT_32_4074.0.2  conn= Wye kv=0.22 kva=25 tap=1

New Transformer.IT32_4241 phases=3 Windings=2 Xhl=0.5 %loadLoss =2.14 %noloadLoss =0.54
 ~ wdg=1 bus=48138_2 conn= Delta kv=13.8 kva=15 tap=0.957
 ~ wdg=2 bus=BT_32_4241 conn= Wye kv=0.38 kva=15 tap=1

New Transformer.IT32_4491 phases=1 Windings=3 Xhl=0.5 %loadLoss =0.5 %noloadLoss =0.2
 ~ wdg=1 bus=89638_1.1 conn= Wye kv=7.97 kva=10 tap=0.913
 ~ wdg=2 bus=BT_32_4491.1.0  conn= Wye kv=0.22 kva=10 tap=1
 ~ wdg=3 bus=BT_32_4491.0.2  conn= Wye kv=0.22 kva=10 tap=1

New Transformer.IT32_4580 phases=1 Windings=3 Xhl=0.5 %loadLoss =0.5 %noloadLoss =0.2
 ~ wdg=1 bus=96155_1.3 conn= Wye kv=7.97 kva=7.5 tap=0.87
 ~ wdg=2 bus=BT_32_4580.1.0  conn= Wye kv=0.22 kva=7.5 tap=1
 ~ wdg=3 bus=BT_32_4580.0.2  conn= Wye kv=0.22 kva=7.5 tap=1

New Transformer.IT32_4636 phases=1 Windings=3 Xhl=0.5 %loadLoss =0.5 %noloadLoss =0.2
 ~ wdg=1 bus=101315_1.1 conn= Wye kv=7.97 kva=5 tap=1
 ~ wdg=2 bus=BT_32_4636.1.0  conn= Wye kv=0.22 kva=5 tap=1
 ~ wdg=3 bus=BT_32_4636.0.2  conn= Wye kv=0.22 kva=5 tap=1

New Transformer.IT32_4817 phases=1 Windings=3 Xhl=0.5 %loadLoss =0.5 %noloadLoss =0.2
 ~ wdg=1 bus=17020_1.1 conn= Wye kv=7.97 kva=3 tap=0.956
 ~ wdg=2 bus=BT_32_4817.1.0  conn= Wye kv=0.22 kva=3 tap=1
 ~ wdg=3 bus=BT_32_4817.0.2  conn= Wye kv=0.22 kva=3 tap=1

New Transformer.IT32_4840 phases=1 Windings=3 Xhl=0.5 %loadLoss =0.5 %noloadLoss =0.2
 ~ wdg=1 bus=110639_1.3 conn= Wye kv=7.97 kva=15 tap=0.956
 ~ wdg=2 bus=BT_32_4840.1.0  conn= Wye kv=0.22 kva=15 tap=1
 ~ wdg=3 bus=BT_32_4840.0.2  conn= Wye kv=0.22 kva=15 tap=1

New Transformer.IT32_4877 phases=1 Windings=3 Xhl=0.5 %loadLoss =0.5 %noloadLoss =0.2
 ~ wdg=1 bus=107898_1.2 conn= Wye kv=7.97 kva=7.5 tap=1
 ~ wdg=2 bus=BT_32_4877.1.0  conn= Wye kv=0.22 kva=7.5 tap=1
 ~ wdg=3 bus=BT_32_4877.0.2  conn= Wye kv=0.22 kva=7.5 tap=1

New Transformer.IT32_4890 phases=3 Windings=2 Xhl=0.5 %loadLoss =2.14 %noloadLoss =0.54
 ~ wdg=1 bus=40754_1 conn= Delta kv=13.8 kva=15 tap=0.957
 ~ wdg=2 bus=BT_32_4890 conn= Wye kv=0.38 kva=15 tap=1

New Transformer.IT32_5001 phases=1 Windings=3 Xhl=0.5 %loadLoss =0.5 %noloadLoss =0.2
 ~ wdg=1 bus=48868_1.2 conn= Wye kv=7.97 kva=10 tap=1
 ~ wdg=2 bus=BT_32_5001.1.0  conn= Wye kv=0.22 kva=10 tap=1
 ~ wdg=3 bus=BT_32_5001.0.2  conn= Wye kv=0.22 kva=10 tap=1

New Transformer.IT32_5002 phases=1 Windings=3 Xhl=0.5 %loadLoss =0.5 %noloadLoss =0.2
 ~ wdg=1 bus=17192_1.2 conn= Wye kv=7.97 kva=7.5 tap=0.913
 ~ wdg=2 bus=BT_32_5002.1.0  conn= Wye kv=0.22 kva=7.5 tap=1
 ~ wdg=3 bus=BT_32_5002.0.2  conn= Wye kv=0.22 kva=7.5 tap=1

New Transformer.IT32_5009 phases=3 Windings=2 Xhl=0.5 %loadLoss =1.65 %noloadLoss =0.41
 ~ wdg=1 bus=75551_1 conn= Delta kv=13.8 kva=45 tap=0.957
 ~ wdg=2 bus=BT_32_5009 conn= Wye kv=0.38 kva=45 tap=1

New Transformer.IT32_529 phases=3 Windings=2 Xhl=0.5 %loadLoss =1.81 %noloadLoss =0.47
 ~ wdg=1 bus=15580_1 conn= Delta kv=13.8 kva=30 tap=0.957
 ~ wdg=2 bus=BT_32_529 conn= Wye kv=0.38 kva=30 tap=1

New Transformer.IT32_530 phases=1 Windings=3 Xhl=0.5 %loadLoss =0.5 %noloadLoss =0.2
 ~ wdg=1 bus=78018_1.3 conn= Wye kv=7.97 kva=15 tap=0.913
 ~ wdg=2 bus=BT_32_530.1.0  conn= Wye kv=0.22 kva=15 tap=1
 ~ wdg=3 bus=BT_32_530.0.2  conn= Wye kv=0.22 kva=15 tap=1

New Transformer.IT32_5430 phases=1 Windings=3 Xhl=0.5 %loadLoss =0.5 %noloadLoss =0.2
 ~ wdg=1 bus=11833_1.2 conn= Wye kv=7.97 kva=25 tap=0.956
 ~ wdg=2 bus=BT_32_5430.1.0  conn= Wye kv=0.22 kva=25 tap=1
 ~ wdg=3 bus=BT_32_5430.0.2  conn= Wye kv=0.22 kva=25 tap=1

New Transformer.IT32_5516 phases=1 Windings=3 Xhl=0.5 %loadLoss =0.5 %noloadLoss =0.2
 ~ wdg=1 bus=19440_1.3 conn= Wye kv=7.97 kva=25 tap=0.956
 ~ wdg=2 bus=BT_32_5516.1.0  conn= Wye kv=0.22 kva=25 tap=1
 ~ wdg=3 bus=BT_32_5516.0.2  conn= Wye kv=0.22 kva=25 tap=1

New Transformer.IT32_552 phases=1 Windings=3 Xhl=0.5 %loadLoss =0.5 %noloadLoss =0.2
 ~ wdg=1 bus=85198_1.3 conn= Wye kv=7.97 kva=25 tap=0.913
 ~ wdg=2 bus=BT_32_552.1.0  conn= Wye kv=0.22 kva=25 tap=1
 ~ wdg=3 bus=BT_32_552.0.2  conn= Wye kv=0.22 kva=25 tap=1

New Transformer.IT32_5523 phases=3 Windings=2 Xhl=0.5 %loadLoss =1.65 %noloadLoss =0.41
 ~ wdg=1 bus=112694_1 conn= Delta kv=13.8 kva=45 tap=0.913
 ~ wdg=2 bus=BT_32_5523 conn= Wye kv=0.38 kva=45 tap=1

New Transformer.IT32_5662 phases=3 Windings=2 Xhl=0.5 %loadLoss =1.81 %noloadLoss =0.47
 ~ wdg=1 bus=40760_1 conn= Delta kv=13.8 kva=30 tap=0.957
 ~ wdg=2 bus=BT_32_5662 conn= Wye kv=0.38 kva=30 tap=1

New Transformer.IT32_5665 phases=1 Windings=3 Xhl=0.5 %loadLoss =0.5 %noloadLoss =0.2
 ~ wdg=1 bus=61898_1.1 conn= Wye kv=7.97 kva=10 tap=1
 ~ wdg=2 bus=BT_32_5665.1.0  conn= Wye kv=0.22 kva=10 tap=1
 ~ wdg=3 bus=BT_32_5665.0.2  conn= Wye kv=0.22 kva=10 tap=1

New Transformer.IT32_5676 phases=3 Windings=2 Xhl=0.5 %loadLoss =1.65 %noloadLoss =0.41
 ~ wdg=1 bus=19417_1 conn= Delta kv=13.8 kva=45 tap=0.913
 ~ wdg=2 bus=BT_32_5676 conn= Wye kv=0.38 kva=45 tap=1

New Transformer.IT32_5680 phases=1 Windings=3 Xhl=0.5 %loadLoss =0.5 %noloadLoss =0.2
 ~ wdg=1 bus=61922_1.3 conn= Wye kv=7.97 kva=25 tap=0.913
 ~ wdg=2 bus=BT_32_5680.1.0  conn= Wye kv=0.22 kva=25 tap=1
 ~ wdg=3 bus=BT_32_5680.0.2  conn= Wye kv=0.22 kva=25 tap=1

New Transformer.IT32_5744 phases=1 Windings=3 Xhl=0.5 %loadLoss =0.5 %noloadLoss =0.2
 ~ wdg=1 bus=16990_1.3 conn= Wye kv=7.97 kva=15 tap=0.913
 ~ wdg=2 bus=BT_32_5744.1.0  conn= Wye kv=0.22 kva=15 tap=1
 ~ wdg=3 bus=BT_32_5744.0.2  conn= Wye kv=0.22 kva=15 tap=1

New Transformer.IT32_5894 phases=1 Windings=3 Xhl=0.5 %loadLoss =0.5 %noloadLoss =0.2
 ~ wdg=1 bus=78039_1.1 conn= Wye kv=7.97 kva=10 tap=1
 ~ wdg=2 bus=BT_32_5894.1.0  conn= Wye kv=0.22 kva=10 tap=1
 ~ wdg=3 bus=BT_32_5894.0.2  conn= Wye kv=0.22 kva=10 tap=1

New Transformer.IT32_5895 phases=1 Windings=3 Xhl=0.5 %loadLoss =0.5 %noloadLoss =0.2
 ~ wdg=1 bus=18756_1.3 conn= Wye kv=7.97 kva=10 tap=1
 ~ wdg=2 bus=BT_32_5895.1.0  conn= Wye kv=0.22 kva=10 tap=1
 ~ wdg=3 bus=BT_32_5895.0.2  conn= Wye kv=0.22 kva=10 tap=1

New Transformer.IT32_5899 phases=3 Windings=2 Xhl=0.5 %loadLoss =1.65 %noloadLoss =0.41
 ~ wdg=1 bus=139797_1 conn= Delta kv=13.8 kva=45 tap=1
 ~ wdg=2 bus=BT_32_5899 conn= Wye kv=0.38 kva=45 tap=1

New Transformer.IT32_6021 phases=1 Windings=3 Xhl=0.5 %loadLoss =0.5 %noloadLoss =0.2
 ~ wdg=1 bus=67205_2.2 conn= Wye kv=7.97 kva=10 tap=1
 ~ wdg=2 bus=BT_32_6021.1.0  conn= Wye kv=0.22 kva=10 tap=1
 ~ wdg=3 bus=BT_32_6021.0.2  conn= Wye kv=0.22 kva=10 tap=1

New Transformer.IT32_6351 phases=3 Windings=2 Xhl=0.5 %loadLoss =1.81 %noloadLoss =0.47
 ~ wdg=1 bus=43816_1 conn= Delta kv=13.8 kva=30 tap=0.957
 ~ wdg=2 bus=BT_32_6351 conn= Wye kv=0.38 kva=30 tap=1

New Transformer.IT32_6858 phases=1 Windings=3 Xhl=0.5 %loadLoss =0.5 %noloadLoss =0.2
 ~ wdg=1 bus=56802_1.2 conn= Wye kv=7.97 kva=10 tap=0.999
 ~ wdg=2 bus=BT_32_6858.1.0  conn= Wye kv=0.22 kva=10 tap=1
 ~ wdg=3 bus=BT_32_6858.0.2  conn= Wye kv=0.22 kva=10 tap=1

New Transformer.IT32_7028 phases=3 Windings=2 Xhl=0.5 %loadLoss =1.65 %noloadLoss =0.41
 ~ wdg=1 bus=72407_1 conn= Delta kv=13.8 kva=45 tap=0.913
 ~ wdg=2 bus=BT_32_7028 conn= Wye kv=0.38 kva=45 tap=1

New Transformer.IT32_7204 phases=1 Windings=3 Xhl=0.5 %loadLoss =0.5 %noloadLoss =0.2
 ~ wdg=1 bus=134816_1.2 conn= Wye kv=7.97 kva=25 tap=0.956
 ~ wdg=2 bus=BT_32_7204.1.0  conn= Wye kv=0.22 kva=25 tap=1
 ~ wdg=3 bus=BT_32_7204.0.2  conn= Wye kv=0.22 kva=25 tap=1

New Transformer.IT32_7384 phases=1 Windings=3 Xhl=0.5 %loadLoss =0.5 %noloadLoss =0.2
 ~ wdg=1 bus=137171_1.2 conn= Wye kv=7.97 kva=10 tap=0.956
 ~ wdg=2 bus=BT_32_7384.1.0  conn= Wye kv=0.22 kva=10 tap=1
 ~ wdg=3 bus=BT_32_7384.0.2  conn= Wye kv=0.22 kva=10 tap=1

New Transformer.IT32_7413 phases=1 Windings=3 Xhl=0.5 %loadLoss =0.5 %noloadLoss =0.2
 ~ wdg=1 bus=17029_1.3 conn= Wye kv=7.97 kva=25 tap=0.956
 ~ wdg=2 bus=BT_32_7413.1.0  conn= Wye kv=0.22 kva=25 tap=1
 ~ wdg=3 bus=BT_32_7413.0.2  conn= Wye kv=0.22 kva=25 tap=1

New Transformer.IT32_7419 phases=1 Windings=3 Xhl=0.5 %loadLoss =0.5 %noloadLoss =0.2
 ~ wdg=1 bus=135346_1.3 conn= Wye kv=7.97 kva=25 tap=0.913
 ~ wdg=2 bus=BT_32_7419.1.0  conn= Wye kv=0.22 kva=25 tap=1
 ~ wdg=3 bus=BT_32_7419.0.2  conn= Wye kv=0.22 kva=25 tap=1

New Transformer.IT32_7485 phases=3 Windings=2 Xhl=0.5 %loadLoss =1.81 %noloadLoss =0.47
 ~ wdg=1 bus=77617_1 conn= Delta kv=13.8 kva=30 tap=0.957
 ~ wdg=2 bus=BT_32_7485 conn= Wye kv=0.38 kva=30 tap=1

New Transformer.IT32_7533 phases=1 Windings=3 Xhl=0.5 %loadLoss =0.5 %noloadLoss =0.2
 ~ wdg=1 bus=126232_1.2 conn= Wye kv=7.97 kva=25 tap=0.913
 ~ wdg=2 bus=BT_32_7533.1.0  conn= Wye kv=0.22 kva=25 tap=1
 ~ wdg=3 bus=BT_32_7533.0.2  conn= Wye kv=0.22 kva=25 tap=1

New Transformer.IT32_7534 phases=3 Windings=2 Xhl=0.5 %loadLoss =1.46 %noloadLoss =0.37
 ~ wdg=1 bus=134761_1 conn= Delta kv=13.8 kva=75 tap=0.913
 ~ wdg=2 bus=BT_32_7534 conn= Wye kv=0.38 kva=75 tap=1

New Transformer.IT32_7739 phases=3 Windings=2 Xhl=0.5 %loadLoss =1.65 %noloadLoss =0.41
 ~ wdg=1 bus=29733_1 conn= Delta kv=13.8 kva=45 tap=1
 ~ wdg=2 bus=BT_32_7739 conn= Wye kv=0.38 kva=45 tap=1

New Transformer.IT32_7860 phases=3 Windings=2 Xhl=0.5 %loadLoss =1.65 %noloadLoss =0.41
 ~ wdg=1 bus=140038_1 conn= Delta kv=13.8 kva=45 tap=0.957
 ~ wdg=2 bus=BT_32_7860 conn= Wye kv=0.38 kva=45 tap=1

New Transformer.IT32_932 phases=1 Windings=3 Xhl=0.5 %loadLoss =0.5 %noloadLoss =0.2
 ~ wdg=1 bus=101972_1.3 conn= Wye kv=7.97 kva=15 tap=0.956
 ~ wdg=2 bus=BT_32_932.1.0  conn= Wye kv=0.22 kva=15 tap=1
 ~ wdg=3 bus=BT_32_932.0.2  conn= Wye kv=0.22 kva=15 tap=1

New Transformer.IT32_961 phases=3 Windings=2 Xhl=0.5 %loadLoss =1.65 %noloadLoss =0.41
 ~ wdg=1 bus=15593_1 conn= Delta kv=13.8 kva=45 tap=0.957
 ~ wdg=2 bus=BT_32_961 conn= Wye kv=0.38 kva=45 tap=1

New Transformer.IT39_10010 phases=1 Windings=3 Xhl=0.5 %loadLoss =0.5 %noloadLoss =0.2
 ~ wdg=1 bus=15523_1.3 conn= Wye kv=7.97 kva=25 tap=0.913
 ~ wdg=2 bus=BT_39_10010.1.0  conn= Wye kv=0.22 kva=25 tap=1
 ~ wdg=3 bus=BT_39_10010.0.2  conn= Wye kv=0.22 kva=25 tap=1

New Transformer.IT39_10012 phases=1 Windings=3 Xhl=0.5 %loadLoss =0.5 %noloadLoss =0.2
 ~ wdg=1 bus=141422_1.3 conn= Wye kv=7.97 kva=25 tap=0.956
 ~ wdg=2 bus=BT_39_10012.1.0  conn= Wye kv=0.22 kva=25 tap=1
 ~ wdg=3 bus=BT_39_10012.0.2  conn= Wye kv=0.22 kva=25 tap=1

New Transformer.IT39_10042 phases=1 Windings=3 Xhl=0.5 %loadLoss =0.5 %noloadLoss =0.2
 ~ wdg=1 bus=103983_1.2 conn= Wye kv=7.97 kva=10 tap=0.913
 ~ wdg=2 bus=BT_39_10042.1.0  conn= Wye kv=0.22 kva=10 tap=1
 ~ wdg=3 bus=BT_39_10042.0.2  conn= Wye kv=0.22 kva=10 tap=1

New Transformer.IT39_1008 phases=3 Windings=2 Xhl=0.5 %loadLoss =1.46 %noloadLoss =0.37
 ~ wdg=1 bus=14239_1 conn= Delta kv=13.8 kva=75 tap=0.913
 ~ wdg=2 bus=BT_39_1008 conn= Wye kv=0.38 kva=75 tap=1

New Transformer.IT39_10138 phases=3 Windings=2 Xhl=0.5 %loadLoss =1.46 %noloadLoss =0.37
 ~ wdg=1 bus=142902_1 conn= Delta kv=13.8 kva=75 tap=0.913
 ~ wdg=2 bus=BT_39_10138 conn= Wye kv=0.38 kva=75 tap=1

New Transformer.IT39_10219 phases=3 Windings=2 Xhl=0.5 %loadLoss =1.81 %noloadLoss =0.47
 ~ wdg=1 bus=15524_1 conn= Delta kv=13.8 kva=30 tap=0.913
 ~ wdg=2 bus=BT_39_10219 conn= Wye kv=0.38 kva=30 tap=1

New Transformer.IT39_10220 phases=1 Windings=3 Xhl=0.5 %loadLoss =0.5 %noloadLoss =0.2
 ~ wdg=1 bus=144538_1.1 conn= Wye kv=7.97 kva=10 tap=0.913
 ~ wdg=2 bus=BT_39_10220.1.0  conn= Wye kv=0.22 kva=10 tap=1
 ~ wdg=3 bus=BT_39_10220.0.2  conn= Wye kv=0.22 kva=10 tap=1

New Transformer.IT39_10221 phases=1 Windings=3 Xhl=0.5 %loadLoss =0.5 %noloadLoss =0.2
 ~ wdg=1 bus=14834_1.2 conn= Wye kv=7.97 kva=25 tap=0.913
 ~ wdg=2 bus=BT_39_10221.1.0  conn= Wye kv=0.22 kva=25 tap=1
 ~ wdg=3 bus=BT_39_10221.0.2  conn= Wye kv=0.22 kva=25 tap=1

New Transformer.IT39_10222 phases=1 Windings=3 Xhl=0.5 %loadLoss =0.5 %noloadLoss =0.2
 ~ wdg=1 bus=14827_1.2 conn= Wye kv=7.97 kva=10 tap=0.913
 ~ wdg=2 bus=BT_39_10222.1.0  conn= Wye kv=0.22 kva=10 tap=1
 ~ wdg=3 bus=BT_39_10222.0.2  conn= Wye kv=0.22 kva=10 tap=1

New Transformer.IT39_10346 phases=1 Windings=3 Xhl=0.5 %loadLoss =0.5 %noloadLoss =0.2
 ~ wdg=1 bus=19106_1.3 conn= Wye kv=7.97 kva=37.5 tap=0.913
 ~ wdg=2 bus=BT_39_10346.1.0  conn= Wye kv=0.22 kva=37.5 tap=1
 ~ wdg=3 bus=BT_39_10346.0.2  conn= Wye kv=0.22 kva=37.5 tap=1

New Transformer.IT39_1035 phases=1 Windings=3 Xhl=0.5 %loadLoss =0.5 %noloadLoss =0.2
 ~ wdg=1 bus=75323_1.3 conn= Wye kv=7.97 kva=15 tap=0.913
 ~ wdg=2 bus=BT_39_1035.1.0  conn= Wye kv=0.22 kva=15 tap=1
 ~ wdg=3 bus=BT_39_1035.0.2  conn= Wye kv=0.22 kva=15 tap=1

New Transformer.IT39_1036 phases=1 Windings=3 Xhl=0.5 %loadLoss =0.5 %noloadLoss =0.2
 ~ wdg=1 bus=104358_1.1 conn= Wye kv=7.97 kva=25 tap=0.956
 ~ wdg=2 bus=BT_39_1036.1.0  conn= Wye kv=0.22 kva=25 tap=1
 ~ wdg=3 bus=BT_39_1036.0.2  conn= Wye kv=0.22 kva=25 tap=1

New Transformer.IT39_10440 phases=1 Windings=3 Xhl=0.5 %loadLoss =0.5 %noloadLoss =0.2
 ~ wdg=1 bus=144891_1.1 conn= Wye kv=7.97 kva=10 tap=1
 ~ wdg=2 bus=BT_39_10440.1.0  conn= Wye kv=0.22 kva=10 tap=1
 ~ wdg=3 bus=BT_39_10440.0.2  conn= Wye kv=0.22 kva=10 tap=1

New Transformer.IT39_1055 phases=1 Windings=3 Xhl=0.5 %loadLoss =0.5 %noloadLoss =0.2
 ~ wdg=1 bus=16946_1.3 conn= Wye kv=7.97 kva=15 tap=1
 ~ wdg=2 bus=BT_39_1055.1.0  conn= Wye kv=0.22 kva=15 tap=1
 ~ wdg=3 bus=BT_39_1055.0.2  conn= Wye kv=0.22 kva=15 tap=1

New Transformer.IT39_1056 phases=1 Windings=3 Xhl=0.5 %loadLoss =0.5 %noloadLoss =0.2
 ~ wdg=1 bus=56845_1.3 conn= Wye kv=7.97 kva=25 tap=1
 ~ wdg=2 bus=BT_39_1056.1.0  conn= Wye kv=0.22 kva=25 tap=1
 ~ wdg=3 bus=BT_39_1056.0.2  conn= Wye kv=0.22 kva=25 tap=1

New Transformer.IT39_1123 phases=1 Windings=3 Xhl=0.5 %loadLoss =0.5 %noloadLoss =0.2
 ~ wdg=1 bus=17222_1.2 conn= Wye kv=7.97 kva=25 tap=0.956
 ~ wdg=2 bus=BT_39_1123.1.0  conn= Wye kv=0.22 kva=25 tap=1
 ~ wdg=3 bus=BT_39_1123.0.2  conn= Wye kv=0.22 kva=25 tap=1

New Transformer.IT39_1133 phases=1 Windings=3 Xhl=0.5 %loadLoss =0.5 %noloadLoss =0.2
 ~ wdg=1 bus=104571_1.3 conn= Wye kv=7.97 kva=15 tap=0.913
 ~ wdg=2 bus=BT_39_1133.1.0  conn= Wye kv=0.22 kva=15 tap=1
 ~ wdg=3 bus=BT_39_1133.0.2  conn= Wye kv=0.22 kva=15 tap=1

New Transformer.IT39_1134 phases=1 Windings=3 Xhl=0.5 %loadLoss =0.5 %noloadLoss =0.2
 ~ wdg=1 bus=17604_1.3 conn= Wye kv=7.97 kva=25 tap=0.913
 ~ wdg=2 bus=BT_39_1134.1.0  conn= Wye kv=0.22 kva=25 tap=1
 ~ wdg=3 bus=BT_39_1134.0.2  conn= Wye kv=0.22 kva=25 tap=1

New Transformer.IT39_1135 phases=1 Windings=3 Xhl=0.5 %loadLoss =0.5 %noloadLoss =0.2
 ~ wdg=1 bus=17615_1.3 conn= Wye kv=7.97 kva=10 tap=0.87
 ~ wdg=2 bus=BT_39_1135.1.0  conn= Wye kv=0.22 kva=10 tap=1
 ~ wdg=3 bus=BT_39_1135.0.2  conn= Wye kv=0.22 kva=10 tap=1

New Transformer.IT39_1142 phases=1 Windings=3 Xhl=0.5 %loadLoss =0.5 %noloadLoss =0.2
 ~ wdg=1 bus=19080_1.2 conn= Wye kv=7.97 kva=10 tap=0.87
 ~ wdg=2 bus=BT_39_1142.1.0  conn= Wye kv=0.22 kva=10 tap=1
 ~ wdg=3 bus=BT_39_1142.0.2  conn= Wye kv=0.22 kva=10 tap=1

New Transformer.IT39_1143 phases=1 Windings=3 Xhl=0.5 %loadLoss =0.5 %noloadLoss =0.2
 ~ wdg=1 bus=18338_1.1 conn= Wye kv=7.97 kva=15 tap=0.913
 ~ wdg=2 bus=BT_39_1143.1.0  conn= Wye kv=0.22 kva=15 tap=1
 ~ wdg=3 bus=BT_39_1143.0.2  conn= Wye kv=0.22 kva=15 tap=1

New Transformer.IT39_1144 phases=1 Windings=3 Xhl=0.5 %loadLoss =0.5 %noloadLoss =0.2
 ~ wdg=1 bus=18729_1.3 conn= Wye kv=7.97 kva=15 tap=0.913
 ~ wdg=2 bus=BT_39_1144.1.0  conn= Wye kv=0.22 kva=15 tap=1
 ~ wdg=3 bus=BT_39_1144.0.2  conn= Wye kv=0.22 kva=15 tap=1

New Transformer.IT39_1145 phases=1 Windings=3 Xhl=0.5 %loadLoss =0.5 %noloadLoss =0.2
 ~ wdg=1 bus=18726_1.3 conn= Wye kv=7.97 kva=10 tap=0.913
 ~ wdg=2 bus=BT_39_1145.1.0  conn= Wye kv=0.22 kva=10 tap=1
 ~ wdg=3 bus=BT_39_1145.0.2  conn= Wye kv=0.22 kva=10 tap=1

New Transformer.IT39_1147 phases=1 Windings=3 Xhl=0.5 %loadLoss =0.5 %noloadLoss =0.2
 ~ wdg=1 bus=18724_1.1 conn= Wye kv=7.97 kva=15 tap=0.87
 ~ wdg=2 bus=BT_39_1147.1.0  conn= Wye kv=0.22 kva=15 tap=1
 ~ wdg=3 bus=BT_39_1147.0.2  conn= Wye kv=0.22 kva=15 tap=1

New Transformer.IT39_1149 phases=3 Windings=2 Xhl=0.5 %loadLoss =1.65 %noloadLoss =0.41
 ~ wdg=1 bus=18361_1 conn= Delta kv=13.8 kva=45 tap=1
 ~ wdg=2 bus=BT_39_1149 conn= Wye kv=0.38 kva=45 tap=1

New Transformer.IT39_1183 phases=1 Windings=3 Xhl=0.5 %loadLoss =0.5 %noloadLoss =0.2
 ~ wdg=1 bus=15046_1.3 conn= Wye kv=7.97 kva=15 tap=1
 ~ wdg=2 bus=BT_39_1183.1.0  conn= Wye kv=0.22 kva=15 tap=1
 ~ wdg=3 bus=BT_39_1183.0.2  conn= Wye kv=0.22 kva=15 tap=1
