New Line.SMT_10146 phases=3 bus1=125461.1.2.3 bus2= 743601.1.2.3 linecode=10_3 length=0.04168 units=km
New Line.SMT_10215 phases=3 bus1=353761.1.2.3 bus2= 353771.1.2.3 linecode=13_3 length=0.05174 units=km
New Line.SMT_10563 phases=3 bus1=743601.1.2.3 bus2= 743611.1.2.3 linecode=10_3 length=0.07564 units=km
New Line.SMT_10962 phases=2 bus1=71671.3.1 bus2= 461401.3.1 linecode=32_2 length=0.00248 units=km
New Line.SMT_1150 phases=3 bus1=357571.1.2.3 bus2= 635731.1.2.3 linecode=10_3 length=0.00369 units=km
New Line.SMT_12089 phases=3 bus1=624291.1.2.3 bus2= 624301.1.2.3 linecode=10_3 length=0.0203 units=km
New Line.SMT_12100 phases=3 bus1=624311.1.2.3 bus2= 624321.1.2.3 linecode=10_3 length=0.0912 units=km
New Line.SMT_12255 phases=3 bus1=21CF1178.1.2.3 bus2= 656301.1.2.3 linecode=10_3 length=0.08723 units=km
New Line.SMT_1254 phases=1 bus1=362721.3 bus2= 642801.3 linecode=29_1 length=0.00268 units=km
New Line.SMT_1255 phases=1 bus1=21CF978.3 bus2= 362731.3 linecode=29_1 length=0.11982 units=km
New Line.SMT_1256 phases=1 bus1=331751.3 bus2= 362721.3 linecode=29_1 length=0.23177 units=km
New Line.SMT_1257 phases=3 bus1=84861.1.2.3 bus2= 353621.1.2.3 linecode=10_3 length=0.00266 units=km
New Line.SMT_1280 phases=3 bus1=70571.1.2.3 bus2= 642791.1.2.3 linecode=13_3 length=0.0794 units=km
New Line.SMT_13471 phases=3 bus1=3CF874.1.2.3 bus2= 564321.1.2.3 linecode=10_3 length=0.05801 units=km
New Line.SMT_14 phases=3 bus1=349481.1.2.3 bus2= 349491.1.2.3 linecode=10_3 length=0.0542 units=km
New Line.SMT_15 phases=3 bus1=349491.1.2.3 bus2= 349501.1.2.3 linecode=10_3 length=0.05367 units=km
New Line.SMT_15575 phases=3 bus1=5961.1.2.3 bus2= 357571.1.2.3 linecode=10_3 length=0.05903 units=km
New Line.SMT_15576 phases=3 bus1=3CF925.1.2.3 bus2= 342571.1.2.3 linecode=10_3 length=0.10388 units=km
New Line.SMT_15800 phases=3 bus1=131371.1.2.3 bus2= 273431.1.2.3 linecode=10_3 length=0.00186 units=km
New Line.SMT_15823 phases=3 bus1=342571.1.2.3 bus2= 342621.1.2.3 linecode=10_3 length=0.08563 units=km
New Line.SMT_15893 phases=3 bus1=342621.1.2.3 bus2= 342631.1.2.3 linecode=10_3 length=0.09202 units=km
New Line.SMT_16213 phases=3 bus1=428691.1.2.3 bus2= 361811.1.2.3 linecode=28_3 length=0.00376 units=km
New Line.SMT_16311 phases=3 bus1=365781.1.2.3 bus2= 665731.1.2.3 linecode=28_3 length=0.002 units=km
New Line.SMT_16317 phases=3 bus1=361811.1.2.3 bus2= 665741.1.2.3 linecode=28_3 length=0.00147 units=km
New Line.SMT_16838 phases=3 bus1=111821.1.2.3 bus2= 471631.1.2.3 linecode=10_3 length=0.00272 units=km
New Line.SMT_16955 phases=1 bus1=383181.3 bus2= 415781.3 linecode=1_1 length=0.09811 units=km
New Line.SMT_1701 phases=3 bus1=3FR485.1.2.3 bus2= 584041.1.2.3 linecode=10_3 length=0.03089 units=km
New Line.SMT_1728 phases=3 bus1=148471.1.2.3 bus2= 148831.1.2.3 linecode=10_3 length=0.07779 units=km
New Line.SMT_17317 phases=3 bus1=143091.1.2.3 bus2= 309691.1.2.3 linecode=10_3 length=0.08026 units=km
New Line.SMT_17478 phases=1 bus1=415781.3 bus2= 149371.3 linecode=1_1 length=0.08612 units=km
New Line.SMT_17481 phases=3 bus1=40401.1.2.3 bus2= 613411.1.2.3 linecode=10_3 length=0.00343 units=km
New Line.SMT_17892 phases=3 bus1=356871.1.2.3 bus2= 146091.1.2.3 linecode=10_3 length=0.15322 units=km
New Line.SMT_18048 phases=1 bus1=17551.1 bus2= 17571.1 linecode=1_1 length=0.12981 units=km
New Line.SMT_18049 phases=1 bus1=17571.1 bus2= 17581.1 linecode=1_1 length=0.0764 units=km
New Line.SMT_18051 phases=1 bus1=17581.1 bus2= 40311.1 linecode=1_1 length=0.12015 units=km
New Line.SMT_18240 phases=3 bus1=87451.1.2.3 bus2= 87461.1.2.3 linecode=10_3 length=0.0644 units=km
New Line.SMT_18241 phases=3 bus1=87461.1.2.3 bus2= 87481.1.2.3 linecode=10_3 length=0.08919 units=km
New Line.SMT_18242 phases=3 bus1=87481.1.2.3 bus2= 87491.1.2.3 linecode=10_3 length=0.06237 units=km
New Line.SMT_18281 phases=3 bus1=124901.1.2.3 bus2= 124891.1.2.3 linecode=13_3 length=0.02332 units=km
New Line.SMT_18282 phases=3 bus1=145041.1.2.3 bus2= 132341.1.2.3 linecode=13_3 length=0.01118 units=km
New Line.SMT_18289 phases=3 bus1=6781.1.2.3 bus2= 6771.1.2.3 linecode=10_3 length=0.06964 units=km
New Line.SMT_18290 phases=3 bus1=23681.1.2.3 bus2= 664911.1.2.3 linecode=10_3 length=0.10702 units=km
New Line.SMT_18291 phases=3 bus1=23811.1.2.3 bus2= 23801.1.2.3 linecode=10_3 length=0.08246 units=km
New Line.SMT_18331 phases=1 bus1=219991.2 bus2= 803181.2 linecode=1_1 length=0.00493 units=km
New Line.SMT_18332 phases=3 bus1=142981.1.2.3 bus2= 142961.1.2.3 linecode=10_3 length=0.08485 units=km
New Line.SMT_18335 phases=3 bus1=664911.1.2.3 bus2= 664921.1.2.3 linecode=10_3 length=0.125 units=km
New Line.SMT_18336 phases=3 bus1=131421.1.2.3 bus2= 131431.1.2.3 linecode=10_3 length=0.05334 units=km
New Line.SMT_18337 phases=3 bus1=117871.1.2.3 bus2= 117881.1.2.3 linecode=10_3 length=0.06364 units=km
New Line.SMT_18338 phases=3 bus1=124721.1.2.3 bus2= 124741.1.2.3 linecode=10_3 length=0.13565 units=km
New Line.SMT_18339 phases=3 bus1=124771.1.2.3 bus2= 125351.1.2.3 linecode=10_3 length=0.05523 units=km
New Line.SMT_18341 phases=3 bus1=125371.1.2.3 bus2= 125381.1.2.3 linecode=10_3 length=0.065 units=km
New Line.SMT_18384 phases=3 bus1=6011.1.2.3 bus2= 6021.1.2.3 linecode=10_3 length=0.06042 units=km
New Line.SMT_18388 phases=3 bus1=6761.1.2.3 bus2= 5981.1.2.3 linecode=10_3 length=0.10305 units=km
New Line.SMT_18389 phases=3 bus1=109591.1.2.3 bus2= 109601.1.2.3 linecode=10_3 length=0.07224 units=km
New Line.SMT_18423 phases=3 bus1=3CS218.1.2.3 bus2= 145181.1.2.3 linecode=28_3 length=0.05805 units=km
New Line.SMT_18424 phases=3 bus1=104001.1.2.3 bus2= 104011.1.2.3 linecode=28_3 length=0.08756 units=km
New Line.SMT_18427 phases=3 bus1=109441.1.2.3 bus2= 109431.1.2.3 linecode=10_3 length=0.04519 units=km
New Line.SMT_18428 phases=3 bus1=32341.1.2.3 bus2= 32331.1.2.3 linecode=10_3 length=0.15871 units=km
New Line.SMT_18429 phases=3 bus1=3CF1014.1.2.3 bus2= 359471.1.2.3 linecode=13_3 length=0.1052 units=km
New Line.SMT_18432 phases=3 bus1=331711.1.2.3 bus2= 331701.1.2.3 linecode=28_3 length=0.10198 units=km
New Line.SMT_18435 phases=3 bus1=359411.1.2.3 bus2= 668961.1.2.3 linecode=13_3 length=0.05012 units=km
New Line.SMT_18547 phases=3 bus1=148711.1.2.3 bus2= 148701.1.2.3 linecode=10_3 length=0.08573 units=km
New Line.SMT_18548 phases=3 bus1=148841.1.2.3 bus2= 148471.1.2.3 linecode=10_3 length=0.07589 units=km
New Line.SMT_18549 phases=3 bus1=131281.1.2.3 bus2= 131271.1.2.3 linecode=10_3 length=0.05914 units=km
New Line.SMT_18698 phases=1 bus1=3CF1291.1 bus2= 354271.1 linecode=1_1 length=0.0801 units=km
New Line.SMT_18921 phases=3 bus1=70681.1.2.3 bus2= 70731.1.2.3 linecode=13_3 length=0.07155 units=km
New Line.SMT_18922 phases=3 bus1=295401.1.2.3 bus2= 70751.1.2.3 linecode=13_3 length=0.11015 units=km
New Line.SMT_18924 phases=3 bus1=7491.1.2.3 bus2= 7501.1.2.3 linecode=13_3 length=0.09214 units=km
New Line.SMT_18925 phases=1 bus1=27511.3 bus2= 27521.3 linecode=1_1 length=0.09841 units=km
New Line.SMT_18926 phases=3 bus1=7501.1.2.3 bus2= 71451.1.2.3 linecode=13_3 length=0.04993 units=km
New Line.SMT_18927 phases=3 bus1=645001.1.2.3 bus2= 645011.1.2.3 linecode=13_3 length=0.07501 units=km
New Line.SMT_18928 phases=3 bus1=14551.1.2.3 bus2= 14561.1.2.3 linecode=10_3 length=0.08184 units=km
New Line.SMT_18930 phases=3 bus1=104901.1.2.3 bus2= 104911.1.2.3 linecode=11_3 length=0.07237 units=km
New Line.SMT_18931 phases=3 bus1=149051.1.2.3 bus2= 149071.1.2.3 linecode=13_3 length=0.05694 units=km
New Line.SMT_18932 phases=3 bus1=149091.1.2.3 bus2= 149811.1.2.3 linecode=13_3 length=0.06106 units=km
New Line.SMT_18933 phases=3 bus1=133701.1.2.3 bus2= 133711.1.2.3 linecode=13_3 length=0.0247 units=km
New Line.SMT_18981 phases=3 bus1=132391.1.2.3 bus2= 133661.1.2.3 linecode=13_3 length=0.02915 units=km
New Line.SMT_18983 phases=3 bus1=133651.1.2.3 bus2= 133641.1.2.3 linecode=13_3 length=0.02508 units=km
New Line.SMT_18984 phases=3 bus1=133641.1.2.3 bus2= 133631.1.2.3 linecode=13_3 length=0.0264 units=km
New Line.SMT_18985 phases=3 bus1=576251.1.2.3 bus2= 576261.1.2.3 linecode=28_3 length=0.05101 units=km
New Line.SMT_18987 phases=1 bus1=149561.3 bus2= 581651.3 linecode=1_1 length=0.00262 units=km
New Line.SMT_18988 phases=3 bus1=601981.1.2.3 bus2= 601991.1.2.3 linecode=28_3 length=0.0431 units=km
New Line.SMT_19037 phases=1 bus1=149401.3 bus2= 149391.3 linecode=1_1 length=0.05153 units=km
New Line.SMT_1911 phases=3 bus1=17451.1.2.3 bus2= 17461.1.2.3 linecode=10_3 length=0.0564 units=km
New Line.SMT_19236 phases=3 bus1=87491.1.2.3 bus2= 113991.1.2.3 linecode=10_3 length=0.04301 units=km
New Line.SMT_19237 phases=3 bus1=148681.1.2.3 bus2= 20351.1.2.3 linecode=10_3 length=0.06712 units=km
New Line.SMT_19277 phases=3 bus1=323481.1.2.3 bus2= 460851.1.2.3 linecode=13_3 length=0.00284 units=km
New Line.SMT_19291 phases=3 bus1=148801.1.2.3 bus2= 148791.1.2.3 linecode=10_3 length=0.0993 units=km
New Line.SMT_19342 phases=3 bus1=131271.1.2.3 bus2= 131261.1.2.3 linecode=10_3 length=0.05124 units=km
New Line.SMT_19344 phases=3 bus1=131311.1.2.3 bus2= 131281.1.2.3 linecode=10_3 length=0.10028 units=km
New Line.SMT_19345 phases=3 bus1=131321.1.2.3 bus2= 131311.1.2.3 linecode=10_3 length=0.06042 units=km
New Line.SMT_19379 phases=3 bus1=111331.1.2.3 bus2= 726611.1.2.3 linecode=28_3 length=0.05561 units=km
New Line.SMT_19385 phases=3 bus1=111421.1.2.3 bus2= 111411.1.2.3 linecode=3_3 length=0.03195 units=km
New Line.SMT_19387 phases=3 bus1=726611.1.2.3 bus2= 111341.1.2.3 linecode=13_3 length=0.00752 units=km
New Line.SMT_19388 phases=3 bus1=726611.1.2.3 bus2= 111431.1.2.3 linecode=13_3 length=0.02038 units=km
New Line.SMT_19389 phases=3 bus1=111431.1.2.3 bus2= 321741.1.2.3 linecode=3_3 length=0.02062 units=km
New Line.SMT_19390 phases=3 bus1=321741.1.2.3 bus2= 111421.1.2.3 linecode=3_3 length=0.02159 units=km
New Line.SMT_19393 phases=3 bus1=131351.1.2.3 bus2= 131341.1.2.3 linecode=10_3 length=0.05805 units=km
New Line.SMT_19395 phases=3 bus1=118021.1.2.3 bus2= 118011.1.2.3 linecode=10_3 length=0.08702 units=km
New Line.SMT_19396 phases=3 bus1=118031.1.2.3 bus2= 118021.1.2.3 linecode=10_3 length=0.08705 units=km
New Line.SMT_19397 phases=3 bus1=331661.1.2.3 bus2= 331651.1.2.3 linecode=28_3 length=0.12304 units=km
New Line.SMT_19400 phases=3 bus1=331671.1.2.3 bus2= 14631.1.2.3 linecode=13_3 length=0.11856 units=km
New Line.SMT_19401 phases=3 bus1=27621.1.2.3 bus2= 27671.1.2.3 linecode=13_3 length=0.12146 units=km
New Line.SMT_19444 phases=3 bus1=123781.1.2.3 bus2= 281901.1.2.3 linecode=10_3 length=0.00364 units=km
New Line.SMT_19445 phases=3 bus1=123831.1.2.3 bus2= 123781.1.2.3 linecode=10_3 length=0.13761 units=km
New Line.SMT_19447 phases=3 bus1=123851.1.2.3 bus2= 123841.1.2.3 linecode=10_3 length=0.10508 units=km
New Line.SMT_19449 phases=3 bus1=143011.1.2.3 bus2= 143001.1.2.3 linecode=10_3 length=0.10435 units=km
New Line.SMT_19450 phases=3 bus1=3CF192.1.2.3 bus2= 143021.1.2.3 linecode=10_3 length=0.06603 units=km
New Line.SMT_19451 phases=3 bus1=126061.1.2.3 bus2= 126051.1.2.3 linecode=10_3 length=0.05869 units=km
New Line.SMT_19452 phases=3 bus1=17461.1.2.3 bus2= 17491.1.2.3 linecode=10_3 length=0.08661 units=km
New Line.SMT_19453 phases=3 bus1=23801.1.2.3 bus2= 23791.1.2.3 linecode=10_3 length=0.06727 units=km
New Line.SMT_19500 phases=2 bus1=645751.1.2 bus2= 23721.1.2 linecode=18_2 length=0.03895 units=km
New Line.SMT_19501 phases=3 bus1=70581.1.2.3 bus2= 70571.1.2.3 linecode=13_3 length=0.0894 units=km
New Line.SMT_19503 phases=3 bus1=147081.1.2.3 bus2= 147091.1.2.3 linecode=11_3 length=0.10868 units=km
New Line.SMT_19504 phases=3 bus1=5991.1.2.3 bus2= 6001.1.2.3 linecode=10_3 length=0.07181 units=km
New Line.SMT_19505 phases=3 bus1=104051.1.2.3 bus2= 104061.1.2.3 linecode=28_3 length=0.07018 units=km
New Line.SMT_19507 phases=3 bus1=104061.1.2.3 bus2= 104071.1.2.3 linecode=28_3 length=0.08509 units=km
New Line.SMT_19558 phases=3 bus1=145181.1.2.3 bus2= 145191.1.2.3 linecode=28_3 length=0.0507 units=km
New Line.SMT_19559 phases=3 bus1=6051.1.2.3 bus2= 6061.1.2.3 linecode=10_3 length=0.07467 units=km
New Line.SMT_19560 phases=3 bus1=126481.1.2.3 bus2= 329561.1.2.3 linecode=28_3 length=0.00361 units=km
New Line.SMT_19561 phases=3 bus1=126471.1.2.3 bus2= 364151.1.2.3 linecode=28_3 length=0.04295 units=km
New Line.SMT_19563 phases=3 bus1=624321.1.2.3 bus2= 624331.1.2.3 linecode=10_3 length=0.09105 units=km
New Line.SMT_19564 phases=3 bus1=85851.1.2.3 bus2= 85861.1.2.3 linecode=28_3 length=0.08322 units=km
New Line.SMT_19565 phases=3 bus1=84901.1.2.3 bus2= 84891.1.2.3 linecode=28_3 length=0.09061 units=km
New Line.SMT_19614 phases=3 bus1=126391.1.2.3 bus2= 126421.1.2.3 linecode=28_3 length=0.07159 units=km
New Line.SMT_19617 phases=3 bus1=553411.1.2.3 bus2= 126381.1.2.3 linecode=28_3 length=0.06297 units=km
New Line.SMT_19620 phases=3 bus1=32461.1.2.3 bus2= 32471.1.2.3 linecode=10_3 length=0.03946 units=km
New Line.SMT_19622 phases=3 bus1=646161.1.2.3 bus2= 646171.1.2.3 linecode=10_3 length=0.10512 units=km
New Line.SMT_19623 phases=3 bus1=680001.1.2.3 bus2= 109451.1.2.3 linecode=10_3 length=0.03652 units=km
New Line.SMT_19624 phases=3 bus1=679771.1.2.3 bus2= 109461.1.2.3 linecode=10_3 length=0.02139 units=km
New Line.SMT_19668 phases=3 bus1=40381.1.2.3 bus2= 40391.1.2.3 linecode=10_3 length=0.07524 units=km
New Line.SMT_19669 phases=3 bus1=144751.1.2.3 bus2= 144761.1.2.3 linecode=10_3 length=0.07666 units=km
New Line.SMT_19672 phases=3 bus1=144771.1.2.3 bus2= 144781.1.2.3 linecode=10_3 length=0.08031 units=km
New Line.SMT_19674 phases=3 bus1=668951.1.2.3 bus2= 378401.1.2.3 linecode=13_3 length=0.05111 units=km
New Line.SMT_19676 phases=3 bus1=144621.1.2.3 bus2= 144611.1.2.3 linecode=10_3 length=0.07762 units=km
New Line.SMT_19720 phases=3 bus1=109601.1.2.3 bus2= 85381.1.2.3 linecode=10_3 length=0.06835 units=km
New Line.SMT_19724 phases=3 bus1=148901.1.2.3 bus2= 148891.1.2.3 linecode=28_3 length=0.09005 units=km
New Line.SMT_19725 phases=3 bus1=20621.1.2.3 bus2= 148941.1.2.3 linecode=28_3 length=0.12929 units=km
New Line.SMT_19773 phases=3 bus1=85481.1.2.3 bus2= 423101.1.2.3 linecode=10_3 length=0.02983 units=km
New Line.SMT_19774 phases=3 bus1=349501.1.2.3 bus2= 149061.1.2.3 linecode=10_3 length=0.07684 units=km
New Line.SMT_19775 phases=3 bus1=89901.1.2.3 bus2= 89911.1.2.3 linecode=10_3 length=0.11316 units=km
New Line.SMT_19778 phases=3 bus1=92921.1.2.3 bus2= 92911.1.2.3 linecode=10_3 length=0.06011 units=km
New Line.SMT_19779 phases=3 bus1=92891.1.2.3 bus2= 92881.1.2.3 linecode=10_3 length=0.08631 units=km
New Line.SMT_19780 phases=3 bus1=149911.1.2.3 bus2= 548111.1.2.3 linecode=10_3 length=0.00179 units=km
New Line.SMT_19781 phases=3 bus1=145031.1.2.3 bus2= 124941.1.2.3 linecode=13_3 length=0.01664 units=km
New Line.SMT_19783 phases=3 bus1=145031.1.2.3 bus2= 124931.1.2.3 linecode=13_3 length=0.01281 units=km
New Line.SMT_19784 phases=3 bus1=124951.1.2.3 bus2= 144981.1.2.3 linecode=13_3 length=0.02417 units=km
New Line.SMT_19785 phases=3 bus1=124911.1.2.3 bus2= 124901.1.2.3 linecode=13_3 length=0.02385 units=km
New Line.SMT_19786 phases=3 bus1=132411.1.2.3 bus2= 132401.1.2.3 linecode=13_3 length=0.02642 units=km
New Line.SMT_19852 phases=3 bus1=117881.1.2.3 bus2= 117891.1.2.3 linecode=10_3 length=0.05869 units=km
New Line.SMT_19853 phases=3 bus1=117911.1.2.3 bus2= 117931.1.2.3 linecode=10_3 length=0.07262 units=km
New Line.SMT_19872 phases=3 bus1=117901.1.2.3 bus2= 117911.1.2.3 linecode=10_3 length=0.03547 units=km
New Line.SMT_19906 phases=3 bus1=117931.1.2.3 bus2= 117941.1.2.3 linecode=10_3 length=0.07046 units=km
New Line.SMT_19969 phases=3 bus1=117891.1.2.3 bus2= 117901.1.2.3 linecode=10_3 length=0.055 units=km
New Line.SMT_20053 phases=3 bus1=71471.1.2.3 bus2= 71481.1.2.3 linecode=13_3 length=0.05608 units=km
New Line.SMT_20487 phases=3 bus1=117941.1.2.3 bus2= 117951.1.2.3 linecode=10_3 length=0.06943 units=km
New Line.SMT_20599 phases=3 bus1=117951.1.2.3 bus2= 117961.1.2.3 linecode=10_3 length=0.04982 units=km
New Line.SMT_20655 phases=3 bus1=117961.1.2.3 bus2= 117981.1.2.3 linecode=10_3 length=0.23907 units=km
New Line.SMT_20904 phases=3 bus1=149821.1.2.3 bus2= 149831.1.2.3 linecode=13_3 length=0.05457 units=km
New Line.SMT_21040 phases=3 bus1=147011.1.2.3 bus2= 103981.1.2.3 linecode=28_3 length=0.06113 units=km
New Line.SMT_21080 phases=3 bus1=125401.1.2.3 bus2= 125411.1.2.3 linecode=10_3 length=0.05725 units=km
New Line.SMT_21304 phases=3 bus1=149811.1.2.3 bus2= 149821.1.2.3 linecode=13_3 length=0.0649 units=km
New Line.SMT_2140 phases=3 bus1=560141.1.2.3 bus2= 560151.1.2.3 linecode=28_3 length=0.07354 units=km
New Line.SMT_21780 phases=3 bus1=149831.1.2.3 bus2= 149841.1.2.3 linecode=13_3 length=0.05099 units=km
New Line.SMT_21781 phases=3 bus1=149841.1.2.3 bus2= 149851.1.2.3 linecode=13_3 length=0.0487 units=km
New Line.SMT_21782 phases=3 bus1=149851.1.2.3 bus2= 149861.1.2.3 linecode=13_3 length=0.05 units=km
New Line.SMT_22470 phases=3 bus1=1_BOES_1.1.2.3 bus2= 428691.1.2.3 linecode=28_3 length=0.0025 units=km
New Line.SMT_22483 phases=3 bus1=361151.1.2.3 bus2= 361771.1.2.3 linecode=13_3 length=0.04332 units=km
New Line.SMT_22539 phases=3 bus1=85391.1.2.3 bus2= 85401.1.2.3 linecode=10_3 length=0.04876 units=km
New Line.SMT_22540 phases=3 bus1=148891.1.2.3 bus2= 148881.1.2.3 linecode=28_3 length=0.129 units=km
New Line.SMT_22541 phases=3 bus1=148981.1.2.3 bus2= 148991.1.2.3 linecode=13_3 length=0.0578 units=km
New Line.SMT_22543 phases=3 bus1=148861.1.2.3 bus2= 341991.1.2.3 linecode=28_3 length=0.11842 units=km
New Line.SMT_22544 phases=3 bus1=148991.1.2.3 bus2= 149001.1.2.3 linecode=13_3 length=0.05045 units=km
New Line.SMT_22545 phases=3 bus1=85531.1.2.3 bus2= 85521.1.2.3 linecode=10_3 length=0.08161 units=km
New Line.SMT_22546 phases=3 bus1=89881.1.2.3 bus2= 89891.1.2.3 linecode=10_3 length=0.09411 units=km
New Line.SMT_22548 phases=3 bus1=693331.1.2.3 bus2= 149881.1.2.3 linecode=13_3 length=0.05899 units=km
New Line.SMT_22594 phases=3 bus1=576281.1.2.3 bus2= 576291.1.2.3 linecode=28_3 length=0.07981 units=km
New Line.SMT_22598 phases=3 bus1=581641.1.2.3 bus2= 111351.1.2.3 linecode=28_3 length=0.05415 units=km
New Line.SMT_22599 phases=3 bus1=601901.1.2.3 bus2= 601911.1.2.3 linecode=28_3 length=0.03506 units=km
New Line.SMT_22647 phases=1 bus1=108441.3 bus2= 104761.3 linecode=1_1 length=0.08254 units=km
New Line.SMT_22950 phases=3 bus1=111411.1.2.3 bus2= 111401.1.2.3 linecode=3_3 length=0.02474 units=km
New Line.SMT_22968 phases=3 bus1=140161.1.2.3 bus2= 87451.1.2.3 linecode=10_3 length=0.06989 units=km
New Line.SMT_23013 phases=3 bus1=641671.1.2.3 bus2= 641661.1.2.3 linecode=10_3 length=0.0086 units=km
New Line.SMT_23014 phases=3 bus1=132231.1.2.3 bus2= 91951.1.2.3 linecode=10_3 length=0.04754 units=km
New Line.SMT_23015 phases=3 bus1=148791.1.2.3 bus2= 148781.1.2.3 linecode=10_3 length=0.06168 units=km
New Line.SMT_23016 phases=3 bus1=339521.1.2.3 bus2= 339551.1.2.3 linecode=13_3 length=0.05111 units=km
New Line.SMT_23017 phases=3 bus1=148821.1.2.3 bus2= 148811.1.2.3 linecode=10_3 length=0.09248 units=km
New Line.SMT_23018 phases=3 bus1=131431.1.2.3 bus2= 131441.1.2.3 linecode=10_3 length=0.06229 units=km
New Line.SMT_23025 phases=3 bus1=339551.1.2.3 bus2= 339561.1.2.3 linecode=13_3 length=0.04941 units=km
New Line.SMT_23026 phases=3 bus1=339561.1.2.3 bus2= 339571.1.2.3 linecode=13_3 length=0.0514 units=km
New Line.SMT_23027 phases=3 bus1=339571.1.2.3 bus2= 353761.1.2.3 linecode=13_3 length=0.04817 units=km
New Line.SMT_23071 phases=3 bus1=331651.1.2.3 bus2= 331641.1.2.3 linecode=28_3 length=0.09841 units=km
New Line.SMT_23072 phases=3 bus1=27691.1.2.3 bus2= 27701.1.2.3 linecode=10_3 length=0.06303 units=km
New Line.SMT_23074 phases=3 bus1=123741.1.2.3 bus2= 123731.1.2.3 linecode=10_3 length=0.06603 units=km
New Line.SMT_23075 phases=3 bus1=3CS926.1.2.3 bus2= 123771.1.2.3 linecode=10_3 length=0.05461 units=km
New Line.SMT_23077 phases=3 bus1=14611.1.2.3 bus2= 27621.1.2.3 linecode=13_3 length=0.10867 units=km
New Line.SMT_23078 phases=3 bus1=143081.1.2.3 bus2= 143091.1.2.3 linecode=10_3 length=0.0572 units=km
New Line.SMT_23079 phases=3 bus1=142961.1.2.3 bus2= 123851.1.2.3 linecode=10_3 length=0.11048 units=km
New Line.SMT_23080 phases=3 bus1=7501.1.2.3 bus2= 71621.1.2.3 linecode=13_3 length=0.09476 units=km
New Line.SMT_23081 phases=3 bus1=71621.1.2.3 bus2= 71631.1.2.3 linecode=13_3 length=0.04528 units=km
New Line.SMT_23082 phases=3 bus1=70751.1.2.3 bus2= 7481.1.2.3 linecode=13_3 length=0.08955 units=km
New Line.SMT_23122 phases=3 bus1=331751.1.2.3 bus2= 331741.1.2.3 linecode=28_3 length=0.07103 units=km
New Line.SMT_23123 phases=1 bus1=27501.3 bus2= 27511.3 linecode=1_1 length=0.10866 units=km
New Line.SMT_23124 phases=3 bus1=23661.1.2.3 bus2= 23671.1.2.3 linecode=10_3 length=0.11152 units=km
New Line.SMT_23126 phases=3 bus1=357571.1.2.3 bus2= 23811.1.2.3 linecode=10_3 length=0.0414 units=km
New Line.SMT_23127 phases=3 bus1=70661.1.2.3 bus2= 70671.1.2.3 linecode=13_3 length=0.08382 units=km
New Line.SMT_23128 phases=3 bus1=5971.1.2.3 bus2= 5961.1.2.3 linecode=10_3 length=0.08964 units=km
New Line.SMT_23130 phases=3 bus1=147071.1.2.3 bus2= 147081.1.2.3 linecode=11_3 length=0.11035 units=km
New Line.SMT_23131 phases=3 bus1=6001.1.2.3 bus2= 6011.1.2.3 linecode=10_3 length=0.08105 units=km
New Line.SMT_23132 phases=3 bus1=6791.1.2.3 bus2= 6781.1.2.3 linecode=10_3 length=0.1151 units=km
New Line.SMT_23133 phases=3 bus1=27591.1.2.3 bus2= 295171.1.2.3 linecode=13_3 length=0.05608 units=km
New Line.SMT_23177 phases=3 bus1=6091.1.2.3 bus2= 6101.1.2.3 linecode=10_3 length=0.07139 units=km
New Line.SMT_23179 phases=3 bus1=3CF1177.1.2.3 bus2= 624291.1.2.3 linecode=10_3 length=0.05249 units=km
New Line.SMT_23180 phases=3 bus1=624331.1.2.3 bus2= 624341.1.2.3 linecode=10_3 length=0.06103 units=km
New Line.SMT_23181 phases=3 bus1=21CF1180.1.2.3 bus2= 323321.1.2.3 linecode=13_3 length=0.04527 units=km
New Line.SMT_23184 phases=1 bus1=17531.1 bus2= 17541.1 linecode=1_1 length=0.0922 units=km
New Line.SMT_23185 phases=3 bus1=323321.1.2.3 bus2= 323741.1.2.3 linecode=13_3 length=0.0483 units=km
New Line.SMT_23230 phases=3 bus1=32451.1.2.3 bus2= 32461.1.2.3 linecode=10_3 length=0.03821 units=km
New Line.SMT_23233 phases=3 bus1=3CF1634.1.2.3 bus2= 40381.1.2.3 linecode=10_3 length=0.11458 units=km
New Line.SMT_23235 phases=3 bus1=126291.1.2.3 bus2= 126301.1.2.3 linecode=28_3 length=0.05604 units=km
New Line.SMT_23238 phases=3 bus1=144671.1.2.3 bus2= 144711.1.2.3 linecode=10_3 length=0.06923 units=km
New Line.SMT_23281 phases=3 bus1=378381.1.2.3 bus2= 378391.1.2.3 linecode=10_3 length=0.05948 units=km
New Line.SMT_23284 phases=3 bus1=680642.1.2.3 bus2= 109591.1.2.3 linecode=10_3 length=0.06768 units=km
New Line.SMT_23285 phases=3 bus1=359401.1.2.3 bus2= 359411.1.2.3 linecode=13_3 length=0.05162 units=km
New Line.SMT_23287 phases=3 bus1=144611.1.2.3 bus2= 144601.1.2.3 linecode=10_3 length=0.05824 units=km
New Line.SMT_23288 phases=3 bus1=359431.1.2.3 bus2= 359441.1.2.3 linecode=13_3 length=0.10161 units=km
New Line.SMT_23289 phases=3 bus1=148961.1.2.3 bus2= 286431.1.2.3 linecode=28_3 length=0.08914 units=km
New Line.SMT_23291 phases=3 bus1=343561.1.2.3 bus2= 148931.1.2.3 linecode=28_3 length=0.01995 units=km
New Line.SMT_23292 phases=3 bus1=665731.1.2.3 bus2= 148911.1.2.3 linecode=28_3 length=0.03277 units=km
New Line.SMT_23381 phases=3 bus1=380591.1.2.3 bus2= 385081.1.2.3 linecode=13_3 length=0.06201 units=km
New Line.SMT_23382 phases=3 bus1=385081.1.2.3 bus2= 385751.1.2.3 linecode=13_3 length=0.04519 units=km
New Line.SMT_23383 phases=3 bus1=385751.1.2.3 bus2= 390591.1.2.3 linecode=13_3 length=0.0457 units=km
New Line.SMT_23384 phases=3 bus1=390591.1.2.3 bus2= 391291.1.2.3 linecode=13_3 length=0.04475 units=km
New Line.SMT_23385 phases=3 bus1=391291.1.2.3 bus2= 395611.1.2.3 linecode=13_3 length=0.04811 units=km
New Line.SMT_23386 phases=3 bus1=395611.1.2.3 bus2= 400621.1.2.3 linecode=13_3 length=0.06846 units=km
New Line.SMT_23387 phases=3 bus1=400621.1.2.3 bus2= 754731.1.2.3 linecode=13_3 length=0.00955 units=km
New Line.SMT_23388 phases=3 bus1=401311.1.2.3 bus2= 405981.1.2.3 linecode=13_3 length=0.05656 units=km
New Line.SMT_23459 phases=1 bus1=149391.3 bus2= 382991.3 linecode=1_1 length=0.05579 units=km
New Line.SMT_23460 phases=1 bus1=382991.3 bus2= 383181.3 linecode=1_1 length=0.14109 units=km
New Line.SMT_23626 phases=3 bus1=664921.1.2.3 bus2= 23621.1.2.3 linecode=10_3 length=0.08041 units=km
New Line.SMT_23627 phases=2 bus1=23691.1.2 bus2= 645751.1.2 linecode=18_2 length=0.04771 units=km
New Line.SMT_23628 phases=2 bus1=23681.1.2 bus2= 664931.1.2 linecode=18_2 length=0.10984 units=km
New Line.SMT_23631 phases=3 bus1=306551.1.2.3 bus2= 306561.1.2.3 linecode=13_3 length=0.05544 units=km
New Line.SMT_23632 phases=3 bus1=306561.1.2.3 bus2= 306651.1.2.3 linecode=13_3 length=0.04776 units=km
New Line.SMT_23633 phases=3 bus1=306651.1.2.3 bus2= 339681.1.2.3 linecode=13_3 length=0.04754 units=km
New Line.SMT_23634 phases=3 bus1=339681.1.2.3 bus2= 339771.1.2.3 linecode=13_3 length=0.0525 units=km
New Line.SMT_23635 phases=3 bus1=339771.1.2.3 bus2= 339791.1.2.3 linecode=13_3 length=0.04847 units=km
New Line.SMT_23636 phases=3 bus1=339791.1.2.3 bus2= 339811.1.2.3 linecode=13_3 length=0.05263 units=km
New Line.SMT_23637 phases=3 bus1=339811.1.2.3 bus2= 339941.1.2.3 linecode=13_3 length=0.04738 units=km
New Line.SMT_23638 phases=3 bus1=71451.1.2.3 bus2= 455491.1.2.3 linecode=13_3 length=0.00252 units=km
New Line.SMT_23665 phases=3 bus1=126361.1.2.3 bus2= 739541.1.2.3 linecode=3_3 length=0.04704 units=km
New Line.SMT_23673 phases=3 bus1=656301.1.2.3 bus2= 633141.1.2.3 linecode=10_3 length=0.08841 units=km
New Line.SMT_23674 phases=3 bus1=633141.1.2.3 bus2= 634291.1.2.3 linecode=10_3 length=0.09193 units=km
New Line.SMT_23675 phases=3 bus1=634291.1.2.3 bus2= 659281.1.2.3 linecode=10_3 length=0.11901 units=km
New Line.SMT_23688 phases=3 bus1=339941.1.2.3 bus2= 339951.1.2.3 linecode=13_3 length=0.05456 units=km
New Line.SMT_23689 phases=3 bus1=339951.1.2.3 bus2= 339961.1.2.3 linecode=13_3 length=0.04061 units=km
New Line.SMT_23690 phases=1 bus1=339961.2 bus2= 340801.2 linecode=29_1 length=0.09652 units=km
New Line.SMT_23691 phases=3 bus1=306561.1.2.3 bus2= 340841.1.2.3 linecode=13_3 length=0.05906 units=km
New Line.SMT_23692 phases=3 bus1=350031.1.2.3 bus2= 350071.1.2.3 linecode=13_3 length=0.09276 units=km
New Line.SMT_23693 phases=3 bus1=350071.1.2.3 bus2= 288801.1.2.3 linecode=13_3 length=0.02968 units=km
New Line.SMT_23694 phases=3 bus1=288801.1.2.3 bus2= 303111.1.2.3 linecode=13_3 length=0.07824 units=km
New Line.SMT_23695 phases=3 bus1=340841.1.2.3 bus2= 326641.1.2.3 linecode=13_3 length=0.02594 units=km
New Line.SMT_23696 phases=3 bus1=326641.1.2.3 bus2= 303121.1.2.3 linecode=13_3 length=0.05682 units=km
New Line.SMT_23697 phases=3 bus1=339961.1.2.3 bus2= 340811.1.2.3 linecode=13_3 length=0.08322 units=km
New Line.SMT_23760 phases=3 bus1=32271.1.2.3 bus2= 377101.1.2.3 linecode=10_3 length=0.051 units=km
New Line.SMT_23765 phases=3 bus1=361771.1.2.3 bus2= 365811.1.2.3 linecode=13_3 length=0.01105 units=km
New Line.SMT_23766 phases=3 bus1=365811.1.2.3 bus2= 365851.1.2.3 linecode=13_3 length=0.05109 units=km
New Line.SMT_23767 phases=3 bus1=409081.1.2.3 bus2= 419351.1.2.3 linecode=13_3 length=0.03765 units=km
New Line.SMT_23768 phases=3 bus1=419351.1.2.3 bus2= 620451.1.2.3 linecode=13_3 length=0.05447 units=km
New Line.SMT_23769 phases=3 bus1=620451.1.2.3 bus2= 620441.1.2.3 linecode=13_3 length=0.04546 units=km
New Line.SMT_23770 phases=3 bus1=620441.1.2.3 bus2= 247941.1.2.3 linecode=13_3 length=0.0541 units=km
New Line.SMT_23771 phases=3 bus1=247941.1.2.3 bus2= 361121.1.2.3 linecode=13_3 length=0.06504 units=km
New Line.SMT_23772 phases=3 bus1=361121.1.2.3 bus2= 361131.1.2.3 linecode=13_3 length=0.0537 units=km
New Line.SMT_23773 phases=3 bus1=361131.1.2.3 bus2= 361151.1.2.3 linecode=13_3 length=0.04928 units=km
New Line.SMT_23774 phases=3 bus1=323741.1.2.3 bus2= 327771.1.2.3 linecode=13_3 length=0.05235 units=km
New Line.SMT_23775 phases=3 bus1=327771.1.2.3 bus2= 333401.1.2.3 linecode=13_3 length=0.05188 units=km
New Line.SMT_23776 phases=3 bus1=333401.1.2.3 bus2= 333411.1.2.3 linecode=13_3 length=0.04569 units=km
New Line.SMT_23777 phases=3 bus1=333411.1.2.3 bus2= 339421.1.2.3 linecode=13_3 length=0.05016 units=km
New Line.SMT_23778 phases=3 bus1=339421.1.2.3 bus2= 339431.1.2.3 linecode=13_3 length=0.05188 units=km
New Line.SMT_23779 phases=3 bus1=109411.1.2.3 bus2= 392801.1.2.3 linecode=10_3 length=0.04482 units=km
New Line.SMT_23780 phases=3 bus1=392801.1.2.3 bus2= 628981.1.2.3 linecode=10_3 length=0.04545 units=km
New Line.SMT_23781 phases=3 bus1=628981.1.2.3 bus2= 629261.1.2.3 linecode=10_3 length=0.04545 units=km
New Line.SMT_23844 phases=3 bus1=365851.1.2.3 bus2= 366631.1.2.3 linecode=13_3 length=0.05308 units=km
New Line.SMT_23845 phases=3 bus1=366631.1.2.3 bus2= 371021.1.2.3 linecode=13_3 length=0.03941 units=km
New Line.SMT_23846 phases=3 bus1=371021.1.2.3 bus2= 371271.1.2.3 linecode=13_3 length=0.07185 units=km
New Line.SMT_23847 phases=3 bus1=371271.1.2.3 bus2= 371481.1.2.3 linecode=13_3 length=0.02807 units=km
New Line.SMT_23848 phases=3 bus1=371481.1.2.3 bus2= 380571.1.2.3 linecode=13_3 length=0.04717 units=km
New Line.SMT_23849 phases=3 bus1=380571.1.2.3 bus2= 380581.1.2.3 linecode=13_3 length=0.05573 units=km
New Line.SMT_23913 phases=3 bus1=3CF189.1.2.3 bus2= 131361.1.2.3 linecode=10_3 length=0.07191 units=km
New Line.SMT_23914 phases=3 bus1=131361.1.2.3 bus2= 131351.1.2.3 linecode=10_3 length=0.12907 units=km
New Line.SMT_23915 phases=3 bus1=380581.1.2.3 bus2= 380591.1.2.3 linecode=13_3 length=0.05057 units=km
New Line.SMT_23916 phases=3 bus1=668931.1.2.3 bus2= 668941.1.2.3 linecode=13_3 length=0.04717 units=km
New Line.SMT_23917 phases=3 bus1=668921.1.2.3 bus2= 668931.1.2.3 linecode=13_3 length=0.05382 units=km
New Line.SMT_23918 phases=3 bus1=668911.1.2.3 bus2= 668921.1.2.3 linecode=13_3 length=0.05077 units=km