New Line.SBT_24071 phases=4 bus1=ET21_1202.1.2.3.4 bus2=BT333031.1.2.3.4 linecode=73_4 length=0.07624 units=km
New Line.SBT_9733 phases=3 bus1=ET21_1202.1.2.4 bus2=BT333041.1.2.4 linecode=59_3 length=0.07453 units=km
New Line.SBT_9380 phases=4 bus1=ET21_138.1.2.3.4 bus2=BT71481.1.2.3.4 linecode=73_4 length=0.09418 units=km
New Line.SBT_9381 phases=4 bus1=BT71481.1.2.3.4 bus2=BT71491.1.2.3.4 linecode=73_4 length=0.09879 units=km
New Line.SBT_9704 phases=4 bus1=BT71461.1.2.3.4 bus2=BT71451.1.2.3.4 linecode=73_4 length=0.0492 units=km
New Line.SBT_24124 phases=4 bus1=BT71451.1.2.3.4 bus2=BT7501.1.2.3.4 linecode=73_4 length=0.04993 units=km
New Line.SBT_23846 phases=4 bus1=BT71471.1.2.3.4 bus2=BT71461.1.2.3.4 linecode=73_4 length=0.08387 units=km
New Line.SBT_23866 phases=4 bus1=BT71481.1.2.3.4 bus2=BT71471.1.2.3.4 linecode=73_4 length=0.05608 units=km
New Line.SBT_26950 phases=4 bus1=ET21_1397.1.2.3.4 bus2=BT317101.1.2.3.4 linecode=75_4 length=0.06907 units=km
New Line.SBT_14913 phases=4 bus1=BT317101.1.2.3.4 bus2=BT317501.1.2.3.4 linecode=75_4 length=0.07306 units=km
New Line.SBT_12800 phases=4 bus1=BT70661.1.2.3.4 bus2=BT70621.1.2.3.4 linecode=73_4 length=0.07603 units=km
New Line.SBT_12801 phases=4 bus1=BT70611.1.2.3.4 bus2=BT621581.1.2.3.4 linecode=73_4 length=0.04177 units=km
New Line.SBT_15422 phases=4 bus1=BT70741.1.2.3.4 bus2=BT295401.1.2.3.4 linecode=73_4 length=0.05061 units=km
New Line.SBT_25775 phases=4 bus1=BT70601.1.2.3.4 bus2=BT70611.1.2.3.4 linecode=73_4 length=0.05124 units=km
New Line.SBT_25776 phases=4 bus1=BT70621.1.2.3.4 bus2=BT70601.1.2.3.4 linecode=73_4 length=0.0792 units=km
New Line.SBT_22928 phases=4 bus1=ET21_143.1.2.3.4 bus2=BT70661.1.2.3.4 linecode=73_4 length=0.08382 units=km
New Line.SBT_22929 phases=4 bus1=BT70681.1.2.3.4 bus2=BT70731.1.2.3.4 linecode=73_4 length=0.07155 units=km
New Line.SBT_22930 phases=4 bus1=BT70731.1.2.3.4 bus2=BT70741.1.2.3.4 linecode=73_4 length=0.0494 units=km
New Line.SBT_29220 phases=2 bus1=BT70621.1.4 bus2=BT27551.1.4 linecode=62_2 length=0.1006 units=km
New Line.SBT_29221 phases=2 bus1=BT27551.1.4 bus2=BT749071.1.4 linecode=62_2 length=0.044 units=km
New Line.SBT_30448 phases=4 bus1=BT70681.1.2.3.4 bus2=BT761501.1.2.3.4 linecode=74_4 length=0.04492 units=km
New Line.SBT_30449 phases=4 bus1=BT761431.1.2.3.4 bus2=BT761441.1.2.3.4 linecode=74_4 length=0.04356 units=km
New Line.SBT_30450 phases=4 bus1=BT761441.1.2.3.4 bus2=BT761451.1.2.3.4 linecode=74_4 length=0.0329 units=km
New Line.SBT_30451 phases=4 bus1=BT761451.1.2.3.4 bus2=BT761461.1.2.3.4 linecode=74_4 length=0.04576 units=km
New Line.SBT_30452 phases=4 bus1=BT761461.1.2.3.4 bus2=BT761471.1.2.3.4 linecode=74_4 length=0.03726 units=km
New Line.SBT_30453 phases=4 bus1=BT761471.1.2.3.4 bus2=BT761481.1.2.3.4 linecode=74_4 length=0.03728 units=km
New Line.SBT_30455 phases=4 bus1=BT761501.1.2.3.4 bus2=BT761431.1.2.3.4 linecode=74_4 length=0.00563 units=km
New Line.SBT_30456 phases=4 bus1=BT761501.1.2.3.4 bus2=BT636411.1.2.3.4 linecode=73_4 length=0.06662 units=km
New Line.SBT_30457 phases=4 bus1=BT761501.1.2.3.4 bus2=BT636401.1.2.3.4 linecode=73_4 length=0.00578 units=km
New Line.SBT_30459 phases=4 bus1=BT761481.1.2.3.4 bus2=BT761493.1.2.3.4 linecode=74_4 length=0.03252 units=km
New Line.SBT_30697 phases=4 bus1=BT763251.1.2.3.4 bus2=BT70681.1.2.3.4 linecode=73_4 length=0.04877 units=km
New Line.SBT_30698 phases=4 bus1=ET21_143.1.2.3.4 bus2=BT763251.1.2.3.4 linecode=73_4 length=0.03507 units=km
New Line.SBT_7751 phases=4 bus1=BT295401.1.2.3.4 bus2=BT70751.1.2.3.4 linecode=73_4 length=0.11015 units=km
New Line.SBT_7752 phases=4 bus1=BT27621.1.2.3.4 bus2=BT133461.1.2.3.4 linecode=73_4 length=0.06708 units=km
New Line.SBT_7753 phases=4 bus1=ET21_144.1.2.3.4 bus2=BT27631.1.2.3.4 linecode=73_4 length=0.08406 units=km
New Line.SBT_7755 phases=4 bus1=BT27641.1.2.3.4 bus2=BT27661.1.2.3.4 linecode=73_4 length=0.08881 units=km
New Line.SBT_30633 phases=4 bus1=BT762701.1.2.3.4 bus2=BT27641.1.2.3.4 linecode=73_4 length=0.05195 units=km
New Line.SBT_30634 phases=4 bus1=BT27641.1.2.3.4 bus2=BT27651.1.2.3.4 linecode=73_4 length=0.07529 units=km
New Line.SBT_30635 phases=4 bus1=BT27651.1.2.3.4 bus2=BT701811.1.2.3.4 linecode=73_4 length=0.06595 units=km
New Line.SBT_30636 phases=4 bus1=BT27631.1.2.3.4 bus2=BT762701.1.2.3.4 linecode=73_4 length=0.02646 units=km
New Line.SBT_26949 phases=4 bus1=ET21_144.1.2.3.4 bus2=BT27621.1.2.3.4 linecode=73_4 length=0.05964 units=km
New Line.SBT_23600 phases=4 bus1=ET21_1686.1.2.3.4 bus2=BT27711.1.2.3.4 linecode=73_4 length=0.07503 units=km
New Line.SBT_23601 phases=4 bus1=BT27711.1.2.3.4 bus2=BT27701.1.2.3.4 linecode=73_4 length=0.05315 units=km
New Line.SBT_23602 phases=4 bus1=BT27691.1.2.3.4 bus2=BT27681.1.2.3.4 linecode=73_4 length=0.0666 units=km
New Line.SBT_8919 phases=4 bus1=ET21_1686.1.2.3.4 bus2=BT14541.1.2.3.4 linecode=73_4 length=0.05077 units=km
New Line.SBT_8920 phases=4 bus1=ET21_1686.1.2.3.4 bus2=BT27731.1.2.3.4 linecode=73_4 length=0.08502 units=km
New Line.SBT_8921 phases=4 bus1=BT27701.1.2.3.4 bus2=BT27691.1.2.3.4 linecode=73_4 length=0.06303 units=km
New Line.SBT_9150 phases=3 bus1=BT362741.1.2.4 bus2=BT362731.1.2.4 linecode=44_3 length=0.04952 units=km
New Line.SBT_9193 phases=3 bus1=ET21_1886.1.2.4 bus2=BT362741.1.2.4 linecode=44_3 length=0.1161 units=km
New Line.SBT_23610 phases=3 bus1=ET21_1886.1.2.4 bus2=BT362761.1.2.4 linecode=44_3 length=0.05644 units=km
New Line.SBT_23735 phases=3 bus1=BT362761.1.2.4 bus2=BT362771.1.2.4 linecode=44_3 length=0.2661 units=km
New Line.SBT_21065 phases=4 bus1=BT71681.1.2.3.4 bus2=BT340381.1.2.3.4 linecode=73_4 length=0.0478 units=km
New Line.SBT_21067 phases=4 bus1=ET21_2906.1.2.3.4 bus2=BT71681.1.2.3.4 linecode=73_4 length=0.05801 units=km
New Line.SBT_24150 phases=4 bus1=ET21_2906.1.2.3.4 bus2=BT71671.1.2.3.4 linecode=73_4 length=0.07642 units=km
New Line.SBT_9875 phases=4 bus1=BT71671.1.2.3.4 bus2=BT71661.1.2.3.4 linecode=73_4 length=0.06903 units=km
New Line.SBT_9944 phases=4 bus1=ET21_325.1.2.3.4 bus2=BT105011.1.2.3.4 linecode=73_4 length=0.08223 units=km
New Line.SBT_9716 phases=4 bus1=BT104991.1.2.3.4 bus2=BT151031.1.2.3.4 linecode=73_4 length=0.08905 units=km
New Line.SBT_9717 phases=4 bus1=BT151031.1.2.3.4 bus2=BT151021.1.2.3.4 linecode=73_4 length=0.03812 units=km
New Line.SBT_9711 phases=4 bus1=BT105011.1.2.3.4 bus2=BT105001.1.2.3.4 linecode=73_4 length=0.09749 units=km
New Line.SBT_9712 phases=4 bus1=BT105033.1.2.3.4 bus2=BT105041.1.2.3.4 linecode=73_4 length=0.06648 units=km
New Line.SBT_9713 phases=4 bus1=BT105033.1.2.3.4 bus2=BT70531.1.2.3.4 linecode=73_4 length=0.06825 units=km
New Line.SBT_24058 phases=4 bus1=BT105001.1.2.3.4 bus2=BT104991.1.2.3.4 linecode=73_4 length=0.07471 units=km
New Line.SBT_23820 phases=4 bus1=ET21_325.1.2.3.4 bus2=BT105033.1.2.3.4 linecode=73_4 length=0.0961 units=km
New Line.SBT_23220 phases=4 bus1=BT645041.1.2.3.4 bus2=BT70561.1.2.3.4 linecode=73_4 length=0.08022 units=km
New Line.SBT_27941 phases=2 bus1=BT744111.1.4 bus2=BT744121.1.4 linecode=62_2 length=0.0508 units=km
New Line.SBT_16686 phases=2 bus1=BT70561.1.4 bus2=BT744111.1.4 linecode=62_2 length=0.04717 units=km
New Line.SBT_17875 phases=2 bus1=ET21_4029.1.4 bus2=BT392731.1.4 linecode=62_2 length=0.07382 units=km
New Line.SBT_32203 phases=4 bus1=BT778481.1.2.3.4 bus2=BT70721.1.2.3.4 linecode=73_4 length=0.05386 units=km
New Line.SBT_32204 phases=4 bus1=BT645021.1.2.3.4 bus2=BT778481.1.2.3.4 linecode=73_4 length=0.045 units=km
New Line.SBT_8248 phases=4 bus1=ET21_4029.1.2.3.4 bus2=BT645041.1.2.3.4 linecode=73_4 length=0.04418 units=km
New Line.SBT_6645 phases=4 bus1=ET21_4029.1.2.3.4 bus2=BT645021.1.2.3.4 linecode=73_4 length=0.05441 units=km
New Line.SBT_3022 phases=4 bus1=BT323481.1.2.3.4 bus2=BT684431.1.2.3.4 linecode=58_4 length=0.06183 units=km
New Line.SBT_17894 phases=4 bus1=BT684431.1.2.3.4 bus2=BT684441.1.2.3.4 linecode=58_4 length=0.03901 units=km
New Line.SBT_18102 phases=4 bus1=BT339521.1.2.3.4 bus2=BT339551.1.2.3.4 linecode=58_4 length=0.05211 units=km
New Line.SBT_18433 phases=4 bus1=BT339431.1.2.3.4 bus2=BT339501.1.2.3.4 linecode=58_4 length=0.052 units=km
New Line.SBT_15429 phases=4 bus1=BT339421.1.2.3.4 bus2=BT339431.1.2.3.4 linecode=58_4 length=0.05288 units=km
New Line.SBT_14932 phases=4 bus1=BT339501.1.2.3.4 bus2=BT339511.1.2.3.4 linecode=58_4 length=0.04889 units=km
New Line.SBT_14933 phases=4 bus1=ET21_4312.1.2.3.4 bus2=BT333401.1.2.3.4 linecode=58_4 length=0.04669 units=km
New Line.SBT_14934 phases=4 bus1=BT333401.1.2.3.4 bus2=BT327771.1.2.3.4 linecode=58_4 length=0.05288 units=km
New Line.SBT_14935 phases=4 bus1=BT323741.1.2.3.4 bus2=BT323321.1.2.3.4 linecode=58_4 length=0.0493 units=km
New Line.SBT_27237 phases=4 bus1=ET21_4312.1.2.3.4 bus2=BT339421.1.2.3.4 linecode=58_4 length=0.05116 units=km
New Line.SBT_26958 phases=4 bus1=BT339511.1.2.3.4 bus2=BT339521.1.2.3.4 linecode=58_4 length=0.05109 units=km
New Line.SBT_26959 phases=4 bus1=BT327771.1.2.3.4 bus2=BT323741.1.2.3.4 linecode=58_4 length=0.05335 units=km
New Line.SBT_26960 phases=4 bus1=BT323321.1.2.3.4 bus2=BT323481.1.2.3.4 linecode=58_4 length=0.0491 units=km
New Line.SBT_27234 phases=4 bus1=BT353761.1.2.3.4 bus2=BT339571.1.2.3.4 linecode=58_4 length=0.04917 units=km
New Line.SBT_27235 phases=4 bus1=BT339561.1.2.3.4 bus2=BT339552.1.2.3.4 linecode=58_4 length=0.05041 units=km
New Line.SBT_27236 phases=4 bus1=BT306481.1.2.3.4 bus2=BT306551.1.2.3.4 linecode=58_4 length=0.05248 units=km
New Line.SBT_15423 phases=4 bus1=ET21_4313.1.2.3.4 bus2=BT353771.1.2.3.4 linecode=58_4 length=0.05161 units=km
New Line.SBT_15424 phases=4 bus1=BT353771.1.2.3.4 bus2=BT353761.1.2.3.4 linecode=58_4 length=0.05274 units=km
New Line.SBT_15425 phases=4 bus1=BT339571.1.2.3.4 bus2=BT339561.1.2.3.4 linecode=58_4 length=0.0524 units=km
New Line.SBT_15426 phases=4 bus1=ET21_4313.1.2.3.4 bus2=BT306481.1.2.3.4 linecode=58_4 length=0.04863 units=km
New Line.SBT_15427 phases=4 bus1=BT306551.1.2.3.4 bus2=BT306561.1.2.3.4 linecode=58_4 length=0.05644 units=km
New Line.SBT_15970 phases=4 bus1=ET21_4811.1.2.3.4 bus2=BT716311.1.2.3.4 linecode=73_4 length=0.0386 units=km
New Line.SBT_24059 phases=4 bus1=ET21_4811.1.2.3.4 bus2=BT10231.1.2.3.4 linecode=73_4 length=0.1009 units=km
New Line.SBT_8938 phases=4 bus1=ET21_4811.1.2.3.4 bus2=BT10261.1.2.3.4 linecode=73_4 length=0.07142 units=km
New Line.SBT_8939 phases=4 bus1=BT716311.1.2.3.4 bus2=BT10251.1.2.3.4 linecode=73_4 length=0.06433 units=km
New Line.SBT_8940 phases=4 bus1=BT10261.1.2.3.4 bus2=BT70521.1.2.3.4 linecode=73_4 length=0.08768 units=km
New Line.SBT_9714 phases=4 bus1=BT105051.1.2.3.4 bus2=BT105031.1.2.3.4 linecode=73_4 length=0.09534 units=km
New Line.SBT_9715 phases=4 bus1=BT10231.1.2.3.4 bus2=BT105051.1.2.3.4 linecode=73_4 length=0.08613 units=km
New Line.SBT_20859 phases=4 bus1=ET3_101.1.2.3.4 bus2=BT20501.1.2.3.4 linecode=73_4 length=0.04223 units=km
New Line.SBT_20971 phases=4 bus1=ET3_101.1.2.3.4 bus2=BT20521.1.2.3.4 linecode=75_4 length=0.07118 units=km
New Line.SBT_3700 phases=4 bus1=BT20521.1.2.3.4 bus2=BT20552.1.2.3.4 linecode=75_4 length=0.06007 units=km
New Line.SBT_4126 phases=4 bus1=ET3_101.1.2.3.4 bus2=BT20471.1.2.3.4 linecode=75_4 length=0.05204 units=km
New Line.SBT_4128 phases=4 bus1=BT20501.1.2.3.4 bus2=BT20511.1.2.3.4 linecode=73_4 length=0.04893 units=km
New Line.SBT_4129 phases=4 bus1=BT20471.1.2.3.4 bus2=BT20461.1.2.3.4 linecode=75_4 length=0.08538 units=km
New Line.SBT_4130 phases=4 bus1=ET3_102.1.2.3.4 bus2=BT17411.1.2.3.4 linecode=97_4 length=0.08075 units=km
New Line.SBT_4204 phases=4 bus1=BT17411.1.2.3.4 bus2=BT17421.1.2.3.4 linecode=97_4 length=0.0661 units=km
New Line.SBT_4206 phases=4 bus1=BT6931.1.2.3.4 bus2=BT26151.1.2.3.4 linecode=97_4 length=0.06801 units=km
New Line.SBT_4207 phases=4 bus1=BT17421.1.2.3.4 bus2=BT17431.1.2.3.4 linecode=97_4 length=0.05045 units=km
New Line.SBT_4210 phases=4 bus1=BT6901.1.2.3.4 bus2=BT6892.1.2.3.4 linecode=97_4 length=0.05869 units=km
New Line.SBT_31791 phases=4 bus1=BT6923.1.2.3.4 bus2=BT6931.1.2.3.4 linecode=97_4 length=0.04701 units=km
New Line.SBT_31792 phases=4 bus1=ET3_102.1.2.3.4 bus2=BT6923.1.2.3.4 linecode=97_4 length=0.06549 units=km
New Line.SBT_31793 phases=4 bus1=BT6923.1.2.3.4 bus2=BT6901.1.2.3.4 linecode=97_4 length=0.06946 units=km
New Line.SBT_26727 phases=2 bus1=BT26151.1.4 bus2=BT336261.1.4 linecode=62_2 length=0.107 units=km
New Line.SBT_20323 phases=4 bus1=BT6071.1.2.3.4 bus2=BT6061.1.2.3.4 linecode=97_4 length=0.05914 units=km
New Line.SBT_20324 phases=4 bus1=ET3_103.1.2.3.4 bus2=BT6071.1.2.3.4 linecode=97_4 length=0.05787 units=km
New Line.SBT_20460 phases=4 bus1=BT6031.1.2.3.4 bus2=BT6041.1.2.3.4 linecode=97_4 length=0.08089 units=km
New Line.SBT_3171 phases=4 bus1=BT6061.1.2.3.4 bus2=BT6051.1.2.3.4 linecode=97_4 length=0.07467 units=km
New Line.SBT_3423 phases=4 bus1=BT6051.1.2.3.4 bus2=BT6031.1.2.3.4 linecode=73_4 length=0.06629 units=km
New Line.SBT_3376 phases=4 bus1=BT23801.1.2.3.4 bus2=BT23811.1.2.3.4 linecode=97_4 length=0.08246 units=km
New Line.SBT_3377 phases=4 bus1=BT22861.1.2.3.4 bus2=BT126061.1.2.3.4 linecode=73_4 length=0.06403 units=km
New Line.SBT_3382 phases=4 bus1=BT126061.1.2.3.4 bus2=BT126051.1.2.3.4 linecode=73_4 length=0.05869 units=km
New Line.SBT_3383 phases=4 bus1=BT22891.1.2.3.4 bus2=BT22901.1.2.3.4 linecode=73_4 length=0.06185 units=km
New Line.SBT_3455 phases=4 bus1=BT22871.1.2.3.4 bus2=BT22881.1.2.3.4 linecode=73_4 length=0.07703 units=km
New Line.SBT_3132 phases=4 bus1=ET3_104.1.2.3.4 bus2=BT23801.1.2.3.4 linecode=97_4 length=0.06727 units=km
New Line.SBT_20434 phases=4 bus1=BT22871.1.2.3.4 bus2=BT22861.1.2.3.4 linecode=73_4 length=0.07355 units=km
New Line.SBT_20435 phases=4 bus1=BT22881.1.2.3.4 bus2=BT22891.1.2.3.4 linecode=73_4 length=0.08229 units=km
New Line.SBT_20440 phases=4 bus1=BT126051.1.2.3.4 bus2=BT143011.1.2.3.4 linecode=73_4 length=0.06122 units=km
New Line.SBT_20301 phases=4 bus1=ET3_104.1.2.3.4 bus2=BT22871.1.2.3.4 linecode=75_4 length=0.07382 units=km
New Line.SBT_20026 phases=4 bus1=BT235261.1.2.3.4 bus2=BT111881.1.2.3.4 linecode=97_4 length=0.06156 units=km
New Line.SBT_20164 phases=4 bus1=ET3_105.1.2.3.4 bus2=BT125391.1.2.3.4 linecode=97_4 length=0.06984 units=km
New Line.SBT_23172 phases=4 bus1=BT125401.1.2.3.4 bus2=BT235261.1.2.3.4 linecode=97_4 length=0.06471 units=km
New Line.SBT_2882 phases=4 bus1=ET3_105.1.2.3.4 bus2=BT125371.1.2.3.4 linecode=97_4 length=0.065 units=km
New Line.SBT_2883 phases=4 bus1=BT125391.1.2.3.4 bus2=BT125401.1.2.3.4 linecode=97_4 length=0.07256 units=km
New Line.SBT_28095 phases=4 bus1=BT123791.1.2.3.4 bus2=BT720161.1.2.3.4 linecode=97_4 length=0.0389 units=km
New Line.SBT_26814 phases=4 bus1=BT123721.1.2.3.4 bus2=BT637931.1.2.3.4 linecode=97_4 length=0.14353 units=km
New Line.SBT_27423 phases=4 bus1=ET3_106.1.2.3.4 bus2=BT123651.1.2.3.4 linecode=73_4 length=0.05743 units=km
New Line.SBT_27424 phases=4 bus1=BT123661.1.2.3.4 bus2=BT123671.1.2.3.4 linecode=73_4 length=0.05941 units=km
New Line.SBT_2651 phases=4 bus1=BT123741.1.2.3.4 bus2=BT123751.1.2.3.4 linecode=97_4 length=0.04528 units=km
New Line.SBT_2660 phases=4 bus1=BT123771.1.2.3.4 bus2=BT123781.1.2.3.4 linecode=97_4 length=0.05823 units=km
New Line.SBT_2661 phases=4 bus1=BT123781.1.2.3.4 bus2=BT123791.1.2.3.4 linecode=97_4 length=0.08039 units=km
New Line.SBT_2637 phases=4 bus1=BT123731.1.2.3.4 bus2=BT123741.1.2.3.4 linecode=97_4 length=0.06603 units=km
New Line.SBT_20465 phases=4 bus1=BT123741.1.2.3.4 bus2=BT295221.1.2.3.4 linecode=97_4 length=0.03689 units=km
New Line.SBT_20466 phases=4 bus1=BT123751.1.2.3.4 bus2=BT123771.1.2.3.4 linecode=97_4 length=0.05404 units=km
New Line.SBT_20757 phases=4 bus1=BT123711.1.2.3.4 bus2=BT123721.1.2.3.4 linecode=97_4 length=0.09677 units=km
New Line.SBT_15773 phases=4 bus1=ET3_106.1.2.3.4 bus2=BT123731.1.2.3.4 linecode=73_4 length=0.0327 units=km
New Line.SBT_15774 phases=4 bus1=BT123651.1.2.3.4 bus2=BT123661.1.2.3.4 linecode=73_4 length=0.13202 units=km
New Line.SBT_14672 phases=4 bus1=BT637931.1.2.3.4 bus2=BT637941.1.2.3.4 linecode=97_4 length=0.08374 units=km
New Line.SBT_3431 phases=4 bus1=BT123751.1.2.3.4 bus2=BT123761.1.2.3.4 linecode=97_4 length=0.04211 units=km
New Line.SBT_34958 phases=4 bus1=BT123731.1.2.3.4 bus2=BT123632.1.2.3.4 linecode=97_4 length=0.05222 units=km
New Line.SBT_34959 phases=4 bus1=BT123632.1.2.3.4 bus2=BT123711.1.2.3.4 linecode=97_4 length=0.09814 units=km
New Line.SBT_3831 phases=4 bus1=BT123791.1.2.3.4 bus2=BT123801.1.2.3.4 linecode=97_4 length=0.06259 units=km
New Line.SBT_3845 phases=4 bus1=BT640851.1.2.3.4 bus2=BT91951.1.2.3.4 linecode=64_4 length=0.04577 units=km
New Line.SBT_3661 phases=4 bus1=BT117891.1.2.3.4 bus2=BT117901.1.2.3.4 linecode=73_4 length=0.055 units=km
New Line.SBT_14697 phases=4 bus1=BT640851.1.2.3.4 bus2=BT356871.1.2.3.4 linecode=92_4 length=0.05669 units=km
New Line.SBT_14698 phases=4 bus1=BT640851.1.2.3.4 bus2=BT641661.1.2.3.4 linecode=92_4 length=0.0072 units=km
New Line.SBT_15518 phases=4 bus1=BT117901.1.2.3.4 bus2=BT117911.1.2.3.4 linecode=73_4 length=0.03547 units=km
New Line.SBT_15513 phases=4 bus1=BT117911.1.2.3.4 bus2=BT117921.1.2.3.4 linecode=97_4 length=0.02236 units=km
New Line.SBT_18209 phases=4 bus1=BT641661.1.2.3.4 bus2=BT123401.1.2.3.4 linecode=92_4 length=0.0372 units=km
New Line.SBT_20698 phases=4 bus1=ET3_108.1.2.3.4 bus2=BT117881.1.2.3.4 linecode=73_4 length=0.06364 units=km
New Line.SBT_20595 phases=4 bus1=BT117881.1.2.3.4 bus2=BT117891.1.2.3.4 linecode=73_4 length=0.05869 units=km
New Line.SBT_20596 phases=4 bus1=BT91951.1.2.3.4 bus2=BT132231.1.2.3.4 linecode=97_4 length=0.04754 units=km
New Line.SBT_26830 phases=4 bus1=ET3_108.1.2.3.4 bus2=BT640851.1.2.3.4 linecode=97_4 length=0.00871 units=km
New Line.SBT_2336 phases=4 bus1=BT149081.1.2.3.4 bus2=BT149071.1.2.3.4 linecode=73_4 length=0.0527 units=km
New Line.SBT_2340 phases=4 bus1=ET3_109.1.2.3.4 bus2=BT149091.1.2.3.4 linecode=73_4 length=0.06106 units=km
New Line.SBT_2183 phases=4 bus1=BT149071.1.2.3.4 bus2=BT149051.1.2.3.4 linecode=73_4 length=0.05694 units=km
New Line.SBT_4201 phases=4 bus1=BT149091.1.2.3.4 bus2=BT149081.1.2.3.4 linecode=73_4 length=0.05464 units=km
New Line.SBT_4203 phases=4 bus1=ET3_109.1.2.3.4 bus2=BT149822.1.2.3.4 linecode=73_4 length=0.0649 units=km
New Line.SBT_4169 phases=2 bus1=BT126361.1.4 bus2=BT126371.1.4 linecode=60_2 length=0.07864 units=km
New Line.SBT_4154 phases=4 bus1=ET3_110.1.2.3.4 bus2=BT134251.1.2.3.4 linecode=92_4 length=0.006 units=km
New Line.SBT_3920 phases=4 bus1=ET3_110.1.2.3.4 bus2=BT126311.1.2.3.4 linecode=92_4 length=0.05689 units=km
New Line.SBT_3921 phases=4 bus1=BT126311.1.2.3.4 bus2=BT126301.1.2.3.4 linecode=92_4 length=0.06203 units=km
New Line.SBT_3922 phases=4 bus1=BT134251.1.2.3.4 bus2=BT126341.1.2.3.4 linecode=73_4 length=0.02915 units=km
New Line.SBT_3932 phases=4 bus1=BT126351.1.2.3.4 bus2=BT111891.1.2.3.4 linecode=73_4 length=0.06017 units=km
New Line.SBT_4115 phases=4 bus1=BT134251.1.2.3.4 bus2=BT126331.1.2.3.4 linecode=73_4 length=0.01749 units=km
New Line.SBT_28866 phases=4 bus1=BT126271.1.2.3.4 bus2=BT126261.1.2.3.4 linecode=92_4 length=0.06239 units=km
New Line.SBT_2146 phases=4 bus1=BT126381.1.2.3.4 bus2=BT126391.1.2.3.4 linecode=92_4 length=0.06768 units=km
New Line.SBT_2148 phases=2 bus1=BT126261.2.4 bus2=BT126241.2.4 linecode=62_2 length=0.07582 units=km
New Line.SBT_20851 phases=4 bus1=BT134251.1.2.3.4 bus2=BT126361.1.2.3.4 linecode=92_4 length=0.08317 units=km
New Line.SBT_20852 phases=4 bus1=BT126301.1.2.3.4 bus2=BT126291.1.2.3.4 linecode=92_4 length=0.05604 units=km
New Line.SBT_20887 phases=4 bus1=BT126291.1.2.3.4 bus2=BT126281.1.2.3.4 linecode=92_4 length=0.06021 units=km
New Line.SBT_18033 phases=4 bus1=BT553411.1.2.3.4 bus2=BT126381.1.2.3.4 linecode=92_4 length=0.06297 units=km
New Line.SBT_18364 phases=4 bus1=BT553401.1.2.3.4 bus2=BT126351.1.2.3.4 linecode=73_4 length=0.05412 units=km
New Line.SBT_1964 phases=4 bus1=BT126261.1.2.3.4 bus2=BT463921.1.2.3.4 linecode=92_4 length=0.05914 units=km
New Line.SBT_19643 phases=4 bus1=BT126261.1.2.3.4 bus2=BT126251.1.2.3.4 linecode=75_4 length=0.06339 units=km
New Line.SBT_19747 phases=4 bus1=BT126281.1.2.3.4 bus2=BT126271.1.2.3.4 linecode=92_4 length=0.06905 units=km
New Line.SBT_20275 phases=4 bus1=BT126311.1.2.3.4 bus2=BT624481.1.2.3.4 linecode=97_4 length=0.00731 units=km
New Line.SBT_15786 phases=4 bus1=BT126361.1.2.3.4 bus2=BT553411.1.2.3.4 linecode=92_4 length=0.06353 units=km
New Line.SBT_16487 phases=4 bus1=BT126341.1.2.3.4 bus2=BT553401.1.2.3.4 linecode=73_4 length=0.08099 units=km
New Line.SBT_14147 phases=4 bus1=BT126481.1.2.3.4 bus2=BT260741.1.2.3.4 linecode=73_4 length=0.03759 units=km
New Line.SBT_19967 phases=4 bus1=BT147011.1.2.3.4 bus2=BT103981.1.2.3.4 linecode=73_4 length=0.06113 units=km
New Line.SBT_19644 phases=4 bus1=ET3_111.1.2.3.4 bus2=BT126471.1.2.3.4 linecode=97_4 length=0.04295 units=km
New Line.SBT_1965 phases=4 bus1=ET3_111.1.2.3.4 bus2=BT126481.1.2.3.4 linecode=73_4 length=0.02955 units=km
New Line.SBT_19650 phases=4 bus1=BT147031.1.2.3.4 bus2=BT147041.1.2.3.4 linecode=97_4 length=0.05495 units=km
New Line.SBT_19651 phases=2 bus1=BT126451.1.4 bus2=BT126441.1.4 linecode=60_2 length=0.05515 units=km
New Line.SBT_19652 phases=4 bus1=BT147001.1.2.3.4 bus2=BT147011.1.2.3.4 linecode=73_4 length=0.06064 units=km
New Line.SBT_19653 phases=4 bus1=BT147001.1.2.3.4 bus2=BT147021.1.2.3.4 linecode=97_4 length=0.03754 units=km
New Line.SBT_1966 phases=4 bus1=BT126481.1.2.3.4 bus2=BT145181.1.2.3.4 linecode=73_4 length=0.06139 units=km
New Line.SBT_1967 phases=2 bus1=BT126471.1.4 bus2=BT126461.1.4 linecode=60_2 length=0.10834 units=km
New Line.SBT_1968 phases=4 bus1=BT126471.1.2.3.4 bus2=BT126491.1.2.3.4 linecode=73_4 length=0.0589 units=km
New Line.SBT_1969 phases=4 bus1=BT126481.1.2.3.4 bus2=BT147031.1.2.3.4 linecode=97_4 length=0.09593 units=km
New Line.SBT_1970 phases=4 bus1=BT145181.1.2.3.4 bus2=BT145191.1.2.3.4 linecode=73_4 length=0.0507 units=km
New Line.SBT_1977 phases=4 bus1=BT126491.1.2.3.4 bus2=BT364161.1.2.3.4 linecode=73_4 length=0.0525 units=km
New Line.SBT_1978 phases=2 bus1=BT126461.1.4 bus2=BT126451.1.4 linecode=60_2 length=0.07558 units=km
New Line.SBT_1979 phases=4 bus1=BT145191.1.2.3.4 bus2=BT147001.1.2.3.4 linecode=73_4 length=0.05805 units=km
New Line.SBT_1980 phases=4 bus1=BT147041.1.2.3.4 bus2=BT147061.1.2.3.4 linecode=97_4 length=0.04531 units=km
New Line.SBT_1981 phases=4 bus1=BT147061.1.2.3.4 bus2=BT147051.1.2.3.4 linecode=97_4 length=0.05456 units=km
New Line.SBT_2531 phases=4 bus1=BT638981.1.2.3.4 bus2=BT103991.1.2.3.4 linecode=97_4 length=0.0247 units=km
New Line.SBT_27419 phases=4 bus1=BT103981.1.2.3.4 bus2=BT638981.1.2.3.4 linecode=97_4 length=0.03946 units=km
New Line.SBT_2852 phases=4 bus1=BT104961.1.2.3.4 bus2=BT104971.1.2.3.4 linecode=97_4 length=0.08809 units=km
New Line.SBT_20174 phases=4 bus1=ET3_113.1.2.3.4 bus2=BT104921.1.2.3.4 linecode=97_4 length=0.04329 units=km
New Line.SBT_20175 phases=4 bus1=BT104921.1.2.3.4 bus2=BT104981.1.2.3.4 linecode=73_4 length=0.10066 units=km
New Line.SBT_20176 phases=4 bus1=BT104941.1.2.3.4 bus2=BT104951.1.2.3.4 linecode=97_4 length=0.05614 units=km
New Line.SBT_20144 phases=4 bus1=BT104951.1.2.3.4 bus2=BT104961.1.2.3.4 linecode=97_4 length=0.058 units=km
New Line.SBT_2904 phases=4 bus1=BT104921.1.2.3.4 bus2=BT104931.1.2.3.4 linecode=97_4 length=0.04001 units=km
New Line.SBT_2905 phases=4 bus1=BT104931.1.2.3.4 bus2=BT104941.1.2.3.4 linecode=97_4 length=0.0622 units=km
New Line.SBT_34624 phases=4 bus1=BT803441.1.2.3.4 bus2=BT84981.1.2.3.4 linecode=74_4 length=0.02875 units=km
New Line.SBT_34625 phases=4 bus1=BT803461.1.2.3.4 bus2=BT103941.1.2.3.4 linecode=74_4 length=0.03147 units=km
New Line.SBT_34635 phases=4 bus1=BT803401.1.2.3.4 bus2=BT803391.1.2.3.4 linecode=74_4 length=0.03625 units=km
New Line.SBT_34636 phases=4 bus1=BT803411.1.2.3.4 bus2=BT803401.1.2.3.4 linecode=74_4 length=0.03511 units=km
New Line.SBT_34637 phases=4 bus1=BT803611.1.2.3.4 bus2=BT803411.1.2.3.4 linecode=74_4 length=0.02698 units=km
New Line.SBT_34638 phases=4 bus1=BT803441.1.2.3.4 bus2=BT803431.1.2.3.4 linecode=74_4 length=0.03573 units=km
New Line.SBT_34639 phases=4 bus1=ET3_114.1.2.3.4 bus2=BT803441.1.2.3.4 linecode=74_4 length=0.04685 units=km
New Line.SBT_34641 phases=4 bus1=ET3_114.1.2.3.4 bus2=BT803461.1.2.3.4 linecode=74_4 length=0.05697 units=km
New Line.SBT_34642 phases=4 bus1=BT803461.1.2.3.4 bus2=BT803471.1.2.3.4 linecode=74_4 length=0.04013 units=km
New Line.SBT_34657 phases=4 bus1=BT803431.1.2.3.4 bus2=BT803611.1.2.3.4 linecode=74_4 length=0.04335 units=km
New Line.SBT_34901 phases=4 bus1=BT803391.1.2.3.4 bus2=BT806291.1.2.3.4 linecode=74_4 length=0.03841 units=km
New Line.SBT_34631 phases=4 bus1=BT803372.1.2.3.4 bus2=BT757171.1.2.3.4 linecode=73_4 length=0.07739 units=km
New Line.SBT_34632 phases=4 bus1=BT803372.1.2.3.4 bus2=BT803361.1.2.3.4 linecode=74_4 length=0.03737 units=km
New Line.SBT_34633 phases=4 bus1=ET3_115.1.2.3.4 bus2=BT803372.1.2.3.4 linecode=74_4 length=0.03846 units=km
New Line.SBT_34627 phases=4 bus1=BT803361.1.2.3.4 bus2=BT109542.1.2.3.4 linecode=74_4 length=0.02446 units=km
New Line.SBT_34652 phases=4 bus1=BT803561.1.2.3.4 bus2=BT803552.1.2.3.4 linecode=74_4 length=0.03951 units=km
New Line.SBT_34653 phases=4 bus1=BT83852.1.2.3.4 bus2=BT803561.1.2.3.4 linecode=74_4 length=0.03887 units=km
New Line.SBT_34654 phases=4 bus1=BT803581.1.2.3.4 bus2=BT803571.1.2.3.4 linecode=74_4 length=0.04243 units=km
New Line.SBT_34655 phases=4 bus1=BT803591.1.2.3.4 bus2=BT803581.1.2.3.4 linecode=74_4 length=0.03894 units=km
New Line.SBT_34656 phases=4 bus1=ET3_115.1.2.3.4 bus2=BT803591.1.2.3.4 linecode=74_4 length=0.0273 units=km
New Line.SBT_34618 phases=4 bus1=BT803591.1.2.3.4 bus2=BT83821.1.2.3.4 linecode=97_4 length=0.06558 units=km
New Line.SBT_34619 phases=4 bus1=BT83821.1.2.3.4 bus2=BT83831.1.2.3.4 linecode=97_4 length=0.06807 units=km
New Line.SBT_34620 phases=4 bus1=BT803571.1.2.3.4 bus2=BT83852.1.2.3.4 linecode=74_4 length=0.05528 units=km
New Line.SBT_34621 phases=4 bus1=BT803552.1.2.3.4 bus2=BT83871.1.2.3.4 linecode=74_4 length=0.05367 units=km
New Line.SBT_2907 phases=4 bus1=ET3_117.1.2.3.4 bus2=BT101281.1.2.3.4 linecode=97_4 length=0.08919 units=km
New Line.SBT_3166 phases=4 bus1=BT83771.1.2.3.4 bus2=BT83781.1.2.3.4 linecode=97_4 length=0.04876 units=km
New Line.SBT_3167 phases=4 bus1=BT83781.1.2.3.4 bus2=BT83791.1.2.3.4 linecode=97_4 length=0.03538 units=km
New Line.SBT_3112 phases=4 bus1=ET3_117.1.2.3.4 bus2=BT341901.1.2.3.4 linecode=73_4 length=0.07648 units=km
New Line.SBT_3113 phases=4 bus1=BT101281.1.2.3.4 bus2=BT101271.1.2.3.4 linecode=97_4 length=0.06003 units=km
New Line.SBT_3114 phases=4 bus1=BT711981.1.2.3.4 bus2=BT341911.1.2.3.4 linecode=74_4 length=0.03801 units=km
New Line.SBT_20177 phases=4 bus1=ET3_117.1.2.3.4 bus2=BT101301.1.2.3.4 linecode=73_4 length=0.04245 units=km
New Line.SBT_20319 phases=4 bus1=BT101311.1.2.3.4 bus2=BT101321.1.2.3.4 linecode=97_4 length=0.06007 units=km
New Line.SBT_20320 phases=4 bus1=BT101331.1.2.3.4 bus2=BT83771.1.2.3.4 linecode=97_4 length=0.06217 units=km
New Line.SBT_20291 phases=4 bus1=BT101301.1.2.3.4 bus2=BT101311.1.2.3.4 linecode=97_4 length=0.07956 units=km
New Line.SBT_20292 phases=4 bus1=BT83761.1.2.3.4 bus2=BT101331.1.2.3.4 linecode=97_4 length=0.03102 units=km
New Line.SBT_16430 phases=4 bus1=BT341901.1.2.3.4 bus2=BT711981.1.2.3.4 linecode=73_4 length=0.03239 units=km
New Line.SBT_16433 phases=3 bus1=BT89911.1.2.4 bus2=BT712081.1.2.4 linecode=44_3 length=0.06037 units=km
New Line.SBT_27792 phases=3 bus1=BT101271.1.2.4 bus2=BT89911.1.2.4 linecode=44_3 length=0.08131 units=km
New Line.SBT_20322 phases=4 bus1=BT101321.1.2.3.4 bus2=BT83761.1.2.3.4 linecode=97_4 length=0.06044 units=km
New Line.SBT_2559 phases=4 bus1=BT32281.1.2.3.4 bus2=BT377111.1.2.3.4 linecode=75_4 length=0.06516 units=km
New Line.SBT_2560 phases=4 bus1=BT377111.1.2.3.4 bus2=BT377121.1.2.3.4 linecode=75_4 length=0.04588 units=km
New Line.SBT_14514 phases=2 bus1=BT32321.1.4 bus2=BT561361.1.4 linecode=62_2 length=0.06233 units=km
New Line.SBT_20321 phases=4 bus1=ET3_118.1.2.3.4 bus2=BT32311.1.2.3.4 linecode=75_4 length=0.07612 units=km
New Line.SBT_19984 phases=4 bus1=BT32291.1.2.3.4 bus2=BT32271.1.2.3.4 linecode=73_4 length=0.11636 units=km
New Line.SBT_19985 phases=4 bus1=BT32271.1.2.3.4 bus2=BT377101.1.2.3.4 linecode=73_4 length=0.051 units=km
New Line.SBT_3578 phases=3 bus1=BT32331.1.2.4 bus2=BT32321.1.2.4 linecode=59_3 length=0.18071 units=km
New Line.SBT_3579 phases=4 bus1=BT32301.1.2.3.4 bus2=BT32291.1.2.3.4 linecode=73_4 length=0.09161 units=km
New Line.SBT_3575 phases=4 bus1=ET3_118.1.2.3.4 bus2=BT32331.1.2.3.4 linecode=75_4 length=0.05346 units=km
New Line.SBT_3576 phases=4 bus1=BT32311.1.2.3.4 bus2=BT32301.1.2.3.4 linecode=75_4 length=0.07426 units=km
New Line.SBT_3577 phases=4 bus1=BT32301.1.2.3.4 bus2=BT32281.1.2.3.4 linecode=75_4 length=0.04095 units=km
New Line.SBT_35918 phases=4 bus1=BT143801.1.2.3.4 bus2=BT81792.1.2.3.4 linecode=73_4 length=0.06476 units=km
New Line.SBT_19986 phases=4 bus1=ET3_119.1.2.3.4 bus2=BT85451.1.2.3.4 linecode=97_4 length=0.07742 units=km
New Line.SBT_2561 phases=4 bus1=ET3_119.1.2.3.4 bus2=BT85471.1.2.3.4 linecode=73_4 length=0.05558 units=km
New Line.SBT_2562 phases=4 bus1=ET3_119.1.2.3.4 bus2=BT143801.1.2.3.4 linecode=73_4 length=0.06041 units=km
New Line.SBT_2569 phases=4 bus1=BT85471.1.2.3.4 bus2=BT85481.1.2.3.4 linecode=73_4 length=0.07513 units=km
New Line.SBT_2570 phases=4 bus1=BT85451.1.2.3.4 bus2=BT85461.1.2.3.4 linecode=97_4 length=0.06762 units=km
New Line.SBT_2573 phases=4 bus1=BT85481.1.2.3.4 bus2=BT85491.1.2.3.4 linecode=73_4 length=0.07256 units=km
New Line.SBT_20414 phases=2 bus1=BT148641.1.4 bus2=BT148651.1.4 linecode=60_2 length=0.0769 units=km
New Line.SBT_20416 phases=2 bus1=BT148621.2.4 bus2=BT148631.2.4 linecode=60_2 length=0.08169 units=km
New Line.SBT_36268 phases=3 bus1=ET3_1193.1.2.4 bus2=BT148591.1.2.4 linecode=44_3 length=0.03744 units=km
New Line.SBT_36269 phases=3 bus1=BT148591.1.2.4 bus2=BT148601.1.2.4 linecode=44_3 length=0.08021 units=km