New circuit.CER3_2_33 baseKV=14 phases=3 bus1=AL120909_1 pu=0.986
