New LoadShape.CC16_Util 24 1.0 mult=(0.34 0.22 0.24 0.23 0.22 0.26 0.32 0.26 0.35 0.21 0.25 0.20 0.27 0.21 0.19 0.21 0.25 0.48 0.66 0.78 0.93 0.52 0.45 0.42 )
New LoadShape.CC16_Sab 24 1.0 mult=(0.31 0.24 0.24 0.24 0.33 0.43 0.22 0.26 0.35 0.35 0.41 0.36 0.51 0.65 0.62 0.48 0.36 0.76 0.77 0.87 1.00 0.53 0.44 0.44 )
New LoadShape.CC16_Dom 24 1.0 mult=(0.35 0.30 0.26 0.26 0.25 0.24 0.23 0.29 0.31 0.35 0.59 0.69 0.51 0.31 0.32 0.37 0.44 0.40 0.70 0.75 0.80 0.67 0.66 0.47 )
New LoadShape.CC17_Util 24 1.0 mult=(0.16 0.15 0.15 0.15 0.14 0.14 0.21 0.21 0.21 0.21 0.27 0.25 0.23 0.23 0.22 0.26 0.37 0.40 1.00 0.84 0.53 0.43 0.32 0.24 )
New LoadShape.CC17_Sab 24 1.0 mult=(0.29 0.20 0.18 0.16 0.15 0.23 0.20 0.32 0.43 0.38 0.33 0.34 0.37 0.36 0.35 0.34 0.45 0.64 0.84 0.64 0.61 0.50 0.50 0.27 )
New LoadShape.CC17_Dom 24 1.0 mult=(0.22 0.23 0.18 0.16 0.16 0.15 0.16 0.25 0.29 0.34 0.42 0.46 0.36 0.30 0.34 0.28 0.29 0.50 0.86 0.70 0.61 0.51 0.41 0.32 )
New LoadShape.CC18_Util 24 1.0 mult=(0.30 0.26 0.19 0.19 0.19 0.18 0.25 0.34 0.38 0.32 0.33 0.32 0.38 0.33 0.34 0.32 0.35 0.69 1.00 0.79 0.67 0.52 0.48 0.41 )
New LoadShape.CC18_Sab 24 1.0 mult=(0.34 0.26 0.20 0.20 0.19 0.19 0.23 0.26 0.33 0.44 0.43 0.43 0.52 0.59 0.51 0.45 0.48 0.63 0.77 0.60 0.68 0.67 0.48 0.43 )
New LoadShape.CC18_Dom 24 1.0 mult=(0.31 0.24 0.21 0.21 0.19 0.20 0.23 0.25 0.30 0.40 0.56 0.51 0.51 0.45 0.54 0.54 0.52 0.45 0.77 0.73 0.64 0.56 0.46 0.44 )
New LoadShape.CC19_Util 24 1.0 mult=(0.35 0.28 0.28 0.28 0.24 0.26 0.41 0.43 0.57 0.50 0.44 0.56 0.53 0.55 0.57 0.61 0.55 0.69 0.97 1.00 0.69 0.75 0.69 0.53 )
New LoadShape.CC19_Sab 24 1.0 mult=(0.49 0.47 0.38 0.35 0.34 0.28 0.27 0.27 0.43 0.49 0.58 0.59 0.64 0.52 0.45 0.57 0.53 0.65 0.75 0.66 0.92 0.77 0.59 0.55 )
New LoadShape.CC19_Dom 24 1.0 mult=(0.52 0.45 0.44 0.35 0.34 0.30 0.31 0.27 0.36 0.57 0.58 0.55 0.58 0.73 0.67 0.58 0.67 0.68 0.74 0.86 0.84 0.67 0.56 0.57 )
New LoadShape.CC20_Util 24 1.0 mult=(0.49 0.44 0.43 0.43 0.48 0.49 0.56 0.55 0.61 0.52 0.58 0.61 0.57 0.57 0.58 0.53 0.53 0.66 0.93 1.00 0.80 0.72 0.79 0.62 )
New LoadShape.CC20_Sab 24 1.0 mult=(0.61 0.49 0.43 0.44 0.43 0.47 0.49 0.42 0.49 0.64 0.67 0.58 0.56 0.60 0.54 0.60 0.73 0.69 0.82 0.80 0.90 0.88 0.74 0.66 )
New LoadShape.CC20_Dom 24 1.0 mult=(0.58 0.55 0.55 0.45 0.46 0.47 0.52 0.45 0.51 0.55 0.55 0.78 0.63 0.60 0.54 0.60 0.58 0.61 0.73 0.64 0.65 0.64 0.60 0.54 )
New LoadShape.CC21_Util 24 1.0 mult=(0.23 0.20 0.20 0.17 0.17 0.17 0.19 0.33 0.67 0.88 0.95 0.94 0.60 0.78 0.95 0.88 1.00 0.92 0.66 0.58 0.43 0.29 0.29 0.27 )
New LoadShape.CC21_Sab 24 1.0 mult=(0.24 0.21 0.19 0.19 0.17 0.16 0.16 0.16 0.35 0.43 0.45 0.44 0.31 0.42 0.36 0.31 0.28 0.33 0.31 0.37 0.33 0.30 0.31 0.31 )
New LoadShape.CC21_Dom 24 1.0 mult=(0.27 0.24 0.21 0.19 0.19 0.19 0.19 0.19 0.24 0.24 0.21 0.24 0.29 0.31 0.26 0.23 0.26 0.24 0.24 0.21 0.24 0.27 0.22 0.22 )
New LoadShape.CC22_Util 24 1.0 mult=(0.31 0.28 0.27 0.27 0.27 0.28 0.31 0.44 0.67 0.91 1.00 0.93 0.69 0.80 0.98 0.95 0.95 1.00 0.87 0.62 0.49 0.42 0.35 0.32 )
New LoadShape.CC22_Sab 24 1.0 mult=(0.36 0.33 0.32 0.32 0.31 0.31 0.32 0.38 0.69 0.91 0.92 0.85 0.67 0.67 0.66 0.56 0.59 0.58 0.51 0.46 0.46 0.46 0.44 0.36 )
New LoadShape.CC22_Dom 24 1.0 mult=(0.36 0.36 0.33 0.32 0.32 0.33 0.32 0.33 0.42 0.44 0.39 0.42 0.44 0.48 0.51 0.52 0.49 0.48 0.41 0.36 0.35 0.34 0.31 0.29 )
New LoadShape.CC23_Util 24 1.0 mult=(0.23 0.21 0.21 0.22 0.22 0.29 0.39 0.62 0.82 0.88 0.95 0.95 0.71 0.78 1.00 0.93 0.95 0.95 0.68 0.59 0.42 0.34 0.32 0.29 )
New LoadShape.CC23_Sab 24 1.0 mult=(0.28 0.25 0.23 0.23 0.23 0.25 0.40 0.43 0.57 0.61 0.62 0.59 0.50 0.54 0.51 0.46 0.45 0.43 0.42 0.43 0.39 0.33 0.30 0.29 )
New LoadShape.CC23_Dom 24 1.0 mult=(0.27 0.23 0.22 0.21 0.21 0.24 0.29 0.30 0.32 0.33 0.28 0.26 0.25 0.26 0.24 0.23 0.24 0.23 0.28 0.29 0.28 0.27 0.26 0.24 )
New LoadShape.CC24_Util 24 1.0 mult=(0.37 0.34 0.34 0.35 0.37 0.36 0.41 0.41 0.65 0.78 0.85 0.86 0.74 0.76 0.89 0.91 0.95 1.00 0.96 0.78 0.68 0.62 0.57 0.49 )
New LoadShape.CC24_Sab 24 1.0 mult=(0.48 0.46 0.42 0.38 0.39 0.38 0.42 0.41 0.67 0.77 0.88 0.87 0.72 0.61 0.63 0.61 0.62 0.63 0.64 0.62 0.60 0.57 0.51 0.48 )
New LoadShape.CC24_Dom 24 1.0 mult=(0.39 0.39 0.38 0.36 0.38 0.38 0.40 0.38 0.36 0.40 0.40 0.43 0.38 0.39 0.47 0.47 0.50 0.47 0.54 0.58 0.54 0.51 0.47 0.42 )
New LoadShape.CC25_Util 24 1.0 mult=(0.20 0.15 0.15 0.14 0.18 0.20 0.24 0.31 0.44 0.64 0.69 0.69 0.40 0.54 0.63 0.68 0.57 1.00 0.88 0.70 0.54 0.33 0.24 0.26 )
New LoadShape.CC25_Sab 24 1.0 mult=(0.25 0.17 0.14 0.14 0.13 0.18 0.25 0.21 0.31 0.38 0.50 0.46 0.43 0.29 0.30 0.23 0.21 0.32 0.39 0.60 0.44 0.36 0.26 0.19 )
New LoadShape.CC25_Dom 24 1.0 mult=(0.18 0.14 0.15 0.14 0.15 0.19 0.17 0.21 0.29 0.25 0.37 0.38 0.35 0.30 0.24 0.35 0.33 0.31 0.32 0.36 0.43 0.40 0.26 0.24 )
New LoadShape.CC26_Util 24 1.0 mult=(0.18 0.16 0.15 0.15 0.15 0.16 0.23 0.48 0.83 0.98 1.00 0.83 0.38 0.60 0.90 0.89 0.83 0.94 0.61 0.44 0.33 0.28 0.25 0.20 )
New LoadShape.CC26_Sab 24 1.0 mult=(0.17 0.16 0.15 0.15 0.15 0.17 0.23 0.30 0.45 0.45 0.47 0.48 0.30 0.37 0.32 0.25 0.26 0.36 0.39 0.37 0.37 0.32 0.26 0.18 )
New LoadShape.CC26_Dom 24 1.0 mult=(0.18 0.18 0.16 0.17 0.15 0.15 0.16 0.17 0.18 0.18 0.22 0.21 0.17 0.17 0.20 0.18 0.22 0.22 0.25 0.26 0.26 0.23 0.22 0.21 )
New LoadShape.CC27_Util 24 1.0 mult=(0.18 0.17 0.16 0.18 0.28 0.37 0.41 0.78 0.94 1.00 0.98 0.90 0.55 0.76 0.91 0.98 0.99 0.89 0.59 0.49 0.41 0.38 0.31 0.22 )
New LoadShape.CC27_Sab 24 1.0 mult=(0.17 0.17 0.18 0.23 0.24 0.28 0.30 0.38 0.53 0.53 0.49 0.41 0.31 0.31 0.28 0.29 0.25 0.26 0.31 0.29 0.25 0.21 0.20 0.18 )
New LoadShape.CC27_Dom 24 1.0 mult=(0.17 0.16 0.17 0.17 0.18 0.18 0.21 0.21 0.20 0.20 0.20 0.20 0.15 0.18 0.18 0.20 0.20 0.24 0.29 0.25 0.21 0.20 0.18 0.17 )
New LoadShape.CC28_Util 24 1.0 mult=(0.29 0.29 0.33 0.40 0.42 0.62 0.66 0.69 0.92 1.00 1.00 0.85 0.59 0.85 0.95 0.97 0.99 0.85 0.65 0.54 0.43 0.36 0.32 0.30 )
New LoadShape.CC28_Sab 24 1.0 mult=(0.32 0.32 0.35 0.40 0.41 0.47 0.52 0.54 0.64 0.58 0.59 0.57 0.44 0.44 0.44 0.44 0.45 0.47 0.42 0.36 0.32 0.32 0.30 0.26 )
New LoadShape.CC28_Dom 24 1.0 mult=(0.24 0.23 0.25 0.29 0.31 0.31 0.32 0.30 0.30 0.33 0.31 0.32 0.29 0.31 0.35 0.34 0.37 0.36 0.33 0.30 0.29 0.30 0.29 0.30 )
New LoadShape.CC29_Util 24 1.0 mult=(0.18 0.18 0.17 0.18 0.16 0.19 0.25 0.36 0.32 0.30 0.32 0.47 0.45 0.33 0.34 0.33 0.34 0.55 1.00 0.80 0.64 0.52 0.38 0.31 )
New LoadShape.CC29_Sab 24 1.0 mult=(0.25 0.22 0.23 0.22 0.22 0.24 0.30 0.43 0.38 0.43 0.64 0.66 0.53 0.55 0.52 0.58 0.57 0.66 0.70 0.90 0.70 0.53 0.40 0.28 )
New LoadShape.CC29_Dom 24 1.0 mult=(0.24 0.22 0.23 0.20 0.23 0.23 0.26 0.38 0.36 0.48 0.55 0.52 0.40 0.35 0.33 0.34 0.47 0.53 0.76 0.59 0.73 0.48 0.31 0.27 )
New LoadShape.CC30_Util 24 1.0 mult=(0.21 0.20 0.20 0.19 0.19 0.21 0.38 0.41 0.40 0.38 0.51 0.51 0.48 0.40 0.36 0.38 0.41 0.71 1.00 0.79 0.55 0.41 0.34 0.29 )
New LoadShape.CC30_Sab 24 1.0 mult=(0.25 0.24 0.22 0.21 0.22 0.25 0.34 0.46 0.51 0.51 0.48 0.53 0.53 0.59 0.51 0.47 0.44 0.69 0.87 0.67 0.55 0.59 0.36 0.36 )
New LoadShape.CC30_Dom 24 1.0 mult=(0.38 0.26 0.22 0.22 0.22 0.22 0.29 0.45 0.59 0.65 0.67 0.69 0.47 0.40 0.38 0.41 0.48 0.53 0.74 0.68 0.55 0.34 0.32 0.22 )
New LoadShape.CC31_Util 24 1.0 mult=(0.30 0.25 0.23 0.28 0.29 0.30 0.40 0.57 0.55 0.63 0.45 0.36 0.31 0.33 0.49 0.61 0.66 1.00 0.99 0.65 0.49 0.42 0.35 0.29 )
New LoadShape.CC31_Sab 24 1.0 mult=(0.41 0.40 0.34 0.36 0.43 0.47 0.54 0.73 0.82 0.73 0.63 0.52 0.42 0.41 0.43 0.46 0.53 0.84 0.92 0.65 0.61 0.47 0.47 0.37 )
New LoadShape.CC31_Dom 24 1.0 mult=(0.37 0.39 0.35 0.37 0.41 0.37 0.48 0.58 0.75 0.59 0.52 0.57 0.39 0.34 0.35 0.34 0.49 0.64 0.75 0.57 0.47 0.43 0.40 0.34 )
New LoadShape.CC32_Util 24 1.0 mult=(0.33 0.31 0.30 0.35 0.38 0.40 0.50 0.67 0.69 0.71 0.63 0.71 0.66 0.74 0.64 0.72 0.78 0.93 1.00 0.70 0.59 0.50 0.38 0.41 )
New LoadShape.CC32_Sab 24 1.0 mult=(0.34 0.34 0.35 0.37 0.36 0.40 0.50 0.62 0.67 0.55 0.50 0.57 0.60 0.63 0.63 0.59 0.62 0.76 0.76 0.55 0.47 0.42 0.37 0.41 )
New LoadShape.CC32_Dom 24 1.0 mult=(0.34 0.30 0.35 0.38 0.37 0.38 0.49 0.69 0.64 0.65 0.76 0.67 0.59 0.50 0.48 0.44 0.59 0.63 0.63 0.50 0.47 0.40 0.35 0.40 )
New LoadShape.CC33_Util 24 1.0 mult=(0.62 0.62 0.62 0.62 0.70 0.85 0.85 0.93 0.77 0.77 0.85 1.00 0.85 0.62 0.62 0.46 0.70 0.77 0.85 0.93 0.85 0.77 0.70 0.62 )
New LoadShape.CC33_Sab 24 1.0 mult=(0.62 0.62 0.62 0.62 0.70 0.85 0.85 0.93 0.77 0.77 0.85 1.00 0.85 0.62 0.62 0.46 0.70 0.77 0.85 0.93 0.85 0.77 0.70 0.62 )
New LoadShape.CC33_Dom 24 1.0 mult=(0.62 0.62 0.62 0.62 0.70 0.85 0.85 0.93 0.77 0.77 0.85 1.00 0.85 0.62 0.62 0.46 0.70 0.77 0.85 0.93 0.85 0.77 0.70 0.62 )
New LoadShape.CC34_Util 24 1.0 mult=(0.59 0.53 0.48 0.48 0.53 0.53 0.65 0.83 0.83 0.89 0.89 0.77 0.77 0.89 0.94 1.00 0.94 0.89 0.83 0.70 0.70 0.65 0.59 0.59 )
New LoadShape.CC34_Sab 24 1.0 mult=(0.59 0.53 0.48 0.48 0.53 0.53 0.65 0.83 0.83 0.89 0.89 0.77 0.77 0.89 0.94 1.00 0.94 0.89 0.83 0.70 0.70 0.65 0.59 0.59 )
New LoadShape.CC34_Dom 24 1.0 mult=(0.59 0.53 0.48 0.48 0.53 0.53 0.65 0.83 0.83 0.89 0.89 0.77 0.77 0.89 0.94 1.00 0.94 0.89 0.83 0.70 0.70 0.65 0.59 0.59 )
New LoadShape.CC35_Util 24 1.0 mult=(0.59 0.53 0.48 0.48 0.53 0.53 0.65 0.83 0.83 0.89 0.89 0.77 0.77 0.89 0.94 1.00 0.94 0.89 0.83 0.70 0.70 0.65 0.59 0.59 )
New LoadShape.CC35_Sab 24 1.0 mult=(0.59 0.53 0.48 0.48 0.53 0.53 0.65 0.83 0.83 0.89 0.89 0.77 0.77 0.89 0.94 1.00 0.94 0.89 0.83 0.70 0.70 0.65 0.59 0.59 )
New LoadShape.CC35_Dom 24 1.0 mult=(0.59 0.53 0.48 0.48 0.53 0.53 0.65 0.83 0.83 0.89 0.89 0.77 0.77 0.89 0.94 1.00 0.94 0.89 0.83 0.70 0.70 0.65 0.59 0.59 )
New LoadShape.CC36_Util 24 1.0 mult=(0.59 0.53 0.48 0.48 0.53 0.53 0.65 0.83 0.83 0.89 0.89 0.77 0.77 0.89 0.94 1.00 0.94 0.89 0.83 0.70 0.70 0.65 0.59 0.59 )
New LoadShape.CC36_Sab 24 1.0 mult=(0.59 0.53 0.48 0.48 0.53 0.53 0.65 0.83 0.83 0.89 0.89 0.77 0.77 0.89 0.94 1.00 0.94 0.89 0.83 0.70 0.70 0.65 0.59 0.59 )
New LoadShape.CC36_Dom 24 1.0 mult=(0.59 0.53 0.48 0.48 0.53 0.53 0.65 0.83 0.83 0.89 0.89 0.77 0.77 0.89 0.94 1.00 0.94 0.89 0.83 0.70 0.70 0.65 0.59 0.59 )
New LoadShape.CC37_Util 24 1.0 mult=(0.59 0.53 0.48 0.48 0.53 0.53 0.65 0.83 0.83 0.89 0.89 0.77 0.77 0.89 0.94 1.00 0.94 0.89 0.83 0.70 0.70 0.65 0.59 0.59 )
New LoadShape.CC37_Sab 24 1.0 mult=(0.59 0.53 0.48 0.48 0.53 0.53 0.65 0.83 0.83 0.89 0.89 0.77 0.77 0.89 0.94 1.00 0.94 0.89 0.83 0.70 0.70 0.65 0.59 0.59 )
New LoadShape.CC37_Dom 24 1.0 mult=(0.59 0.53 0.48 0.48 0.53 0.53 0.65 0.83 0.83 0.89 0.89 0.77 0.77 0.89 0.94 1.00 0.94 0.89 0.83 0.70 0.70 0.65 0.59 0.59 )
New LoadShape.CC38_Util 24 1.0 mult=(1.00 1.00 1.00 1.00 1.00 0.87 0.07 0.00 0.00 0.00 0.00 0.00 0.00 0.00 0.00 0.00 0.00 0.02 0.68 1.00 1.00 1.00 1.00 1.00 )
New LoadShape.CC38_Sab 24 1.0 mult=(1.00 1.00 1.00 1.00 1.00 0.87 0.07 0.00 0.00 0.00 0.00 0.00 0.00 0.00 0.00 0.00 0.00 0.02 0.68 1.00 1.00 1.00 1.00 1.00 )
New LoadShape.CC38_Dom 24 1.0 mult=(1.00 1.00 1.00 1.00 1.00 0.87 0.07 0.00 0.00 0.00 0.00 0.00 0.00 0.00 0.00 0.00 0.00 0.02 0.68 1.00 1.00 1.00 1.00 1.00 )
New LoadShape.CC39_Util 24 1.0 mult=(0.23 0.20 0.20 0.17 0.17 0.17 0.19 0.33 0.67 0.88 0.95 0.94 0.60 0.78 0.95 0.88 1.00 0.92 0.66 0.58 0.43 0.29 0.29 0.27 )
New LoadShape.CC39_Sab 24 1.0 mult=(0.24 0.21 0.19 0.19 0.17 0.16 0.16 0.16 0.35 0.43 0.45 0.44 0.31 0.42 0.36 0.31 0.28 0.33 0.31 0.37 0.33 0.30 0.31 0.31 )
New LoadShape.CC39_Dom 24 1.0 mult=(0.27 0.24 0.21 0.19 0.19 0.19 0.19 0.19 0.24 0.24 0.21 0.24 0.29 0.31 0.26 0.23 0.26 0.24 0.24 0.21 0.24 0.27 0.22 0.22 )
New LoadShape.CC40_Util 24 1.0 mult=(0.31 0.28 0.27 0.27 0.27 0.28 0.31 0.44 0.67 0.91 1.00 0.93 0.69 0.80 0.98 0.95 0.95 1.00 0.87 0.62 0.49 0.42 0.35 0.32 )
New LoadShape.CC40_Sab 24 1.0 mult=(0.36 0.33 0.32 0.32 0.31 0.31 0.32 0.38 0.69 0.91 0.92 0.85 0.67 0.67 0.66 0.56 0.59 0.58 0.51 0.46 0.46 0.46 0.44 0.36 )
New LoadShape.CC40_Dom 24 1.0 mult=(0.36 0.36 0.33 0.32 0.32 0.33 0.32 0.33 0.42 0.44 0.39 0.42 0.44 0.48 0.51 0.52 0.49 0.48 0.41 0.36 0.35 0.34 0.31 0.29 )
New LoadShape.CC41_Util 24 1.0 mult=(0.23 0.21 0.21 0.22 0.22 0.29 0.39 0.62 0.82 0.88 0.95 0.95 0.71 0.78 1.00 0.93 0.95 0.95 0.68 0.59 0.42 0.34 0.32 0.29 )
New LoadShape.CC41_Sab 24 1.0 mult=(0.28 0.25 0.23 0.23 0.23 0.25 0.40 0.43 0.57 0.61 0.62 0.59 0.50 0.54 0.51 0.46 0.45 0.43 0.42 0.43 0.39 0.33 0.30 0.29 )
New LoadShape.CC41_Dom 24 1.0 mult=(0.27 0.23 0.22 0.21 0.21 0.24 0.29 0.30 0.32 0.33 0.28 0.26 0.25 0.26 0.24 0.23 0.24 0.23 0.28 0.29 0.28 0.27 0.26 0.24 )
New LoadShape.CC42_Util 24 1.0 mult=(0.37 0.34 0.34 0.35 0.37 0.36 0.41 0.41 0.65 0.78 0.85 0.86 0.74 0.76 0.89 0.91 0.95 1.00 0.96 0.78 0.68 0.62 0.57 0.49 )
New LoadShape.CC42_Sab 24 1.0 mult=(0.48 0.46 0.42 0.38 0.39 0.38 0.42 0.41 0.67 0.77 0.88 0.87 0.72 0.61 0.63 0.61 0.62 0.63 0.64 0.62 0.60 0.57 0.51 0.48 )
New LoadShape.CC42_Dom 24 1.0 mult=(0.39 0.39 0.38 0.36 0.38 0.38 0.40 0.38 0.36 0.40 0.40 0.43 0.38 0.39 0.47 0.47 0.50 0.47 0.54 0.58 0.54 0.51 0.47 0.42 )
New LoadShape.CC43_Util 24 1.0 mult=(0.63 0.75 1.00 1.00 0.75 0.63 0.63 0.50 0.50 0.50 0.38 0.63 0.63 0.88 0.75 0.63 0.38 0.25 0.13 0.13 0.25 0.38 0.38 0.50 )
New LoadShape.CC43_Sab 24 1.0 mult=(0.63 0.75 1.00 1.00 0.75 0.63 0.63 0.50 0.50 0.50 0.38 0.63 0.63 0.88 0.75 0.63 0.38 0.25 0.13 0.13 0.25 0.38 0.38 0.50 )
New LoadShape.CC43_Dom 24 1.0 mult=(0.63 0.75 1.00 1.00 0.75 0.63 0.63 0.50 0.50 0.50 0.38 0.63 0.63 0.88 0.75 0.63 0.38 0.25 0.13 0.13 0.25 0.38 0.38 0.50 )
New LoadShape.CC44_Util 24 1.0 mult=(0.23 0.20 0.20 0.17 0.17 0.17 0.19 0.33 0.67 0.88 0.95 0.94 0.60 0.78 0.95 0.88 1.00 0.92 0.66 0.58 0.43 0.29 0.29 0.27 )
New LoadShape.CC44_Sab 24 1.0 mult=(0.24 0.21 0.19 0.19 0.17 0.16 0.16 0.16 0.35 0.43 0.45 0.44 0.31 0.42 0.36 0.31 0.28 0.33 0.31 0.37 0.33 0.30 0.31 0.31 )
New LoadShape.CC44_Dom 24 1.0 mult=(0.27 0.24 0.21 0.19 0.19 0.19 0.19 0.19 0.24 0.24 0.21 0.24 0.29 0.31 0.26 0.23 0.26 0.24 0.24 0.21 0.24 0.27 0.22 0.22 )
New LoadShape.CC45_Util 24 1.0 mult=(0.31 0.28 0.27 0.27 0.27 0.28 0.31 0.44 0.67 0.91 1.00 0.93 0.69 0.80 0.98 0.95 0.95 1.00 0.87 0.62 0.49 0.42 0.35 0.32 )
New LoadShape.CC45_Sab 24 1.0 mult=(0.36 0.33 0.32 0.32 0.31 0.31 0.32 0.38 0.69 0.91 0.92 0.85 0.67 0.67 0.66 0.56 0.59 0.58 0.51 0.46 0.46 0.46 0.44 0.36 )
New LoadShape.CC45_Dom 24 1.0 mult=(0.36 0.36 0.33 0.32 0.32 0.33 0.32 0.33 0.42 0.44 0.39 0.42 0.44 0.48 0.51 0.52 0.49 0.48 0.41 0.36 0.35 0.34 0.31 0.29 )
New LoadShape.CC46_Util 24 1.0 mult=(0.23 0.21 0.21 0.22 0.22 0.29 0.39 0.62 0.82 0.88 0.95 0.95 0.71 0.78 1.00 0.93 0.95 0.95 0.68 0.59 0.42 0.34 0.32 0.29 )
New LoadShape.CC46_Sab 24 1.0 mult=(0.28 0.25 0.23 0.23 0.23 0.25 0.40 0.43 0.57 0.61 0.62 0.59 0.50 0.54 0.51 0.46 0.45 0.43 0.42 0.43 0.39 0.33 0.30 0.29 )
New LoadShape.CC46_Dom 24 1.0 mult=(0.27 0.23 0.22 0.21 0.21 0.24 0.29 0.30 0.32 0.33 0.28 0.26 0.25 0.26 0.24 0.23 0.24 0.23 0.28 0.29 0.28 0.27 0.26 0.24 )
New LoadShape.CC47_Util 24 1.0 mult=(0.37 0.34 0.34 0.35 0.37 0.36 0.41 0.41 0.65 0.78 0.85 0.86 0.74 0.76 0.89 0.91 0.95 1.00 0.96 0.78 0.68 0.62 0.57 0.49 )
New LoadShape.CC47_Sab 24 1.0 mult=(0.48 0.46 0.42 0.38 0.39 0.38 0.42 0.41 0.67 0.77 0.88 0.87 0.72 0.61 0.63 0.61 0.62 0.63 0.64 0.62 0.60 0.57 0.51 0.48 )
New LoadShape.CC47_Dom 24 1.0 mult=(0.39 0.39 0.38 0.36 0.38 0.38 0.40 0.38 0.36 0.40 0.40 0.43 0.38 0.39 0.47 0.47 0.50 0.47 0.54 0.58 0.54 0.51 0.47 0.42 )
