New Circuit.2_PAL2_1 basekv=23.1 pu=1 bus1=2_PAL2_1 r1=0 x1=0.0001
