New Transformer.TRF_2_1035A phases=3 windings=2 buses=[56731.1.2.3 ET2_1035.1.2.3.4] conns=[Delta Wye] kvs=[23.1 0.38] kvas=[30 30] %loadloss=2.1 %noloadloss=0.533333
New Reactor.TRF_2_1035A_R phases=1 bus1=ET2_1035.4 R=15 X=0 basefreq=60
New Transformer.TRF_2_1097A phases=3 windings=2 buses=[329421.1.2.3 ET2_1097.1.2.3.4] conns=[Delta Wye] kvs=[23.1 0.38] kvas=[15 15] %loadloss=2.5 %noloadloss=0.633333
New Reactor.TRF_2_1097A_R phases=1 bus1=ET2_1097.4 R=15 X=0 basefreq=60
New Transformer.TRF_2_1099A phases=1 windings=3 buses=[MRT_41081TRF_2_1099A.2 ET2_1099.1.4 ET2_1099.4.2] conns=[Wye Wye Wye] kvs=[13.3367912182804 0.22 0.22] kvas=[5 5 5] %loadloss=2.1 %noloadloss=0.7
New Linecode.LC_MRT_TRF_2_1099A_1 nphases=1 basefreq=60 r1=15000 x1=0 units=km normamps=0
New Linecode.LC_MRT_TRF_2_1099A_2 nphases=2 basefreq=60 r1=15000 x1=0 units=km normamps=0
New Linecode.LC_MRT_TRF_2_1099A_3 nphases=3 basefreq=60 r1=15000 x1=0 units=km normamps=0
New Linecode.LC_MRT_TRF_2_1099A_4 nphases=4 basefreq=60 r1=15000 x1=0 units=km normamps=0
New Line.Resist_MTR_TRF_2_1099A phases=1 bus1=41081.2 bus2= MRT_41081TRF_2_1099A.2 linecode=LC_MRT_TRF_2_1099A_1 length=0.001 units=km
New Reactor.TRF_2_1099A_R phases=1 bus1=ET2_1099.4 R=15 X=0 basefreq=60
New Transformer.TRF_2_1179A phases=3 windings=2 buses=[358441.1.2.3 ET2_1179.1.2.3.4] conns=[Delta Wye] kvs=[23.1 0.38] kvas=[30 30] %loadloss=2.1 %noloadloss=0.533333
New Reactor.TRF_2_1179A_R phases=1 bus1=ET2_1179.4 R=15 X=0 basefreq=60
New Transformer.TRF_2_1182A phases=1 windings=3 buses=[MRT_60082TRF_2_1182A.1 ET2_1182.1.4 ET2_1182.4.2] conns=[Wye Wye Wye] kvs=[13.3367912182804 0.22 0.22] kvas=[15 15 15] %loadloss=1.766667 %noloadloss=0.433333
New Linecode.LC_MRT_TRF_2_1182A_1 nphases=1 basefreq=60 r1=15000 x1=0 units=km normamps=0
New Linecode.LC_MRT_TRF_2_1182A_2 nphases=2 basefreq=60 r1=15000 x1=0 units=km normamps=0
New Linecode.LC_MRT_TRF_2_1182A_3 nphases=3 basefreq=60 r1=15000 x1=0 units=km normamps=0
New Linecode.LC_MRT_TRF_2_1182A_4 nphases=4 basefreq=60 r1=15000 x1=0 units=km normamps=0
New Line.Resist_MTR_TRF_2_1182A phases=1 bus1=60082.1 bus2= MRT_60082TRF_2_1182A.1 linecode=LC_MRT_TRF_2_1182A_1 length=0.001 units=km
New Reactor.TRF_2_1182A_R phases=1 bus1=ET2_1182.4 R=15 X=0 basefreq=60
New Transformer.TRF_2_1185A phases=3 windings=2 buses=[35521.1.2.3 ET2_1185.1.2.3.4] conns=[Delta Wye] kvs=[23.1 0.38] kvas=[15 15] %loadloss=2.5 %noloadloss=0.633333
New Reactor.TRF_2_1185A_R phases=1 bus1=ET2_1185.4 R=15 X=0 basefreq=60
New Transformer.TRF_2_1186A phases=3 windings=2 buses=[41941.1.2.3 ET2_1186.1.2.3.4] conns=[Delta Wye] kvs=[23.1 0.38] kvas=[15 15] %loadloss=2.5 %noloadloss=0.633333
New Reactor.TRF_2_1186A_R phases=1 bus1=ET2_1186.4 R=15 X=0 basefreq=60
New Transformer.TRF_2_1195A phases=3 windings=2 buses=[20041.1.2.3 ET2_1195.1.2.3.4] conns=[Delta Wye] kvs=[23.1 0.38] kvas=[15 15] %loadloss=2.5 %noloadloss=0.633333
New Reactor.TRF_2_1195A_R phases=1 bus1=ET2_1195.4 R=15 X=0 basefreq=60
New Transformer.TRF_2_1219A phases=1 windings=3 buses=[MRT_49931TRF_2_1219A.1 ET2_1219.1.4 ET2_1219.4.2] conns=[Wye Wye Wye] kvs=[13.3367912182804 0.22 0.22] kvas=[10 10 10] %loadloss=1.95 %noloadloss=0.5
New Linecode.LC_MRT_TRF_2_1219A_1 nphases=1 basefreq=60 r1=15000 x1=0 units=km normamps=0
New Linecode.LC_MRT_TRF_2_1219A_2 nphases=2 basefreq=60 r1=15000 x1=0 units=km normamps=0
New Linecode.LC_MRT_TRF_2_1219A_3 nphases=3 basefreq=60 r1=15000 x1=0 units=km normamps=0
New Linecode.LC_MRT_TRF_2_1219A_4 nphases=4 basefreq=60 r1=15000 x1=0 units=km normamps=0
New Line.Resist_MTR_TRF_2_1219A phases=1 bus1=49931.1 bus2= MRT_49931TRF_2_1219A.1 linecode=LC_MRT_TRF_2_1219A_1 length=0.001 units=km
New Reactor.TRF_2_1219A_R phases=1 bus1=ET2_1219.4 R=15 X=0 basefreq=60
New Transformer.TRF_2_1220A phases=3 windings=2 buses=[62851.1.2.3 ET2_1220.1.2.3.4] conns=[Delta Wye] kvs=[23.1 0.38] kvas=[30 30] %loadloss=2.1 %noloadloss=0.533333
New Reactor.TRF_2_1220A_R phases=1 bus1=ET2_1220.4 R=15 X=0 basefreq=60
New Transformer.TRF_2_1221A phases=3 windings=2 buses=[4121.1.2.3 ET2_1221.1.2.3.4] conns=[Delta Wye] kvs=[23.1 0.38] kvas=[15 15] %loadloss=2.5 %noloadloss=0.633333
New Reactor.TRF_2_1221A_R phases=1 bus1=ET2_1221.4 R=15 X=0 basefreq=60
New Transformer.TRF_2_1222A phases=3 windings=2 buses=[64171.1.2.3 ET2_1222.1.2.3.4] conns=[Delta Wye] kvs=[23.1 0.38] kvas=[112.5 112.5] %loadloss=1.475556 %noloadloss=0.377777
New Reactor.TRF_2_1222A_R phases=1 bus1=ET2_1222.4 R=15 X=0 basefreq=60
New Transformer.TRF_2_1223A phases=1 windings=3 buses=[MRT_64281TRF_2_1223A.1 ET2_1223.1.4 ET2_1223.4.2] conns=[Wye Wye Wye] kvs=[13.3367912182804 0.22 0.22] kvas=[10 10 10] %loadloss=1.95 %noloadloss=0.5
New Linecode.LC_MRT_TRF_2_1223A_1 nphases=1 basefreq=60 r1=15000 x1=0 units=km normamps=0
New Linecode.LC_MRT_TRF_2_1223A_2 nphases=2 basefreq=60 r1=15000 x1=0 units=km normamps=0
New Linecode.LC_MRT_TRF_2_1223A_3 nphases=3 basefreq=60 r1=15000 x1=0 units=km normamps=0
New Linecode.LC_MRT_TRF_2_1223A_4 nphases=4 basefreq=60 r1=15000 x1=0 units=km normamps=0
New Line.Resist_MTR_TRF_2_1223A phases=1 bus1=64281.1 bus2= MRT_64281TRF_2_1223A.1 linecode=LC_MRT_TRF_2_1223A_1 length=0.001 units=km
New Reactor.TRF_2_1223A_R phases=1 bus1=ET2_1223.4 R=15 X=0 basefreq=60
New Transformer.TRF_2_1402A phases=1 windings=3 buses=[MRT_23351TRF_2_1402A.3 ET2_1402.1.4 ET2_1402.4.2] conns=[Wye Wye Wye] kvs=[13.3367912182804 0.22 0.22] kvas=[10 10 10] %loadloss=1.95 %noloadloss=0.5
New Linecode.LC_MRT_TRF_2_1402A_1 nphases=1 basefreq=60 r1=15000 x1=0 units=km normamps=0
New Linecode.LC_MRT_TRF_2_1402A_2 nphases=2 basefreq=60 r1=15000 x1=0 units=km normamps=0
New Linecode.LC_MRT_TRF_2_1402A_3 nphases=3 basefreq=60 r1=15000 x1=0 units=km normamps=0
New Linecode.LC_MRT_TRF_2_1402A_4 nphases=4 basefreq=60 r1=15000 x1=0 units=km normamps=0
New Line.Resist_MTR_TRF_2_1402A phases=1 bus1=23351.3 bus2= MRT_23351TRF_2_1402A.3 linecode=LC_MRT_TRF_2_1402A_1 length=0.001 units=km
New Reactor.TRF_2_1402A_R phases=1 bus1=ET2_1402.4 R=15 X=0 basefreq=60
New Transformer.TRF_2_1408A phases=1 windings=3 buses=[MRT_5281TRF_2_1408A.1 ET2_1408.1.4 ET2_1408.4.2] conns=[Wye Wye Wye] kvs=[13.3367912182804 0.22 0.22] kvas=[10 10 10] %loadloss=1.95 %noloadloss=0.5
New Linecode.LC_MRT_TRF_2_1408A_1 nphases=1 basefreq=60 r1=15000 x1=0 units=km normamps=0
New Linecode.LC_MRT_TRF_2_1408A_2 nphases=2 basefreq=60 r1=15000 x1=0 units=km normamps=0
New Linecode.LC_MRT_TRF_2_1408A_3 nphases=3 basefreq=60 r1=15000 x1=0 units=km normamps=0
New Linecode.LC_MRT_TRF_2_1408A_4 nphases=4 basefreq=60 r1=15000 x1=0 units=km normamps=0
New Line.Resist_MTR_TRF_2_1408A phases=1 bus1=5281.1 bus2= MRT_5281TRF_2_1408A.1 linecode=LC_MRT_TRF_2_1408A_1 length=0.001 units=km
New Reactor.TRF_2_1408A_R phases=1 bus1=ET2_1408.4 R=15 X=0 basefreq=60
New Transformer.TRF_2_1420A phases=1 windings=3 buses=[MRT_73521TRF_2_1420A.3 ET2_1420.1.4 ET2_1420.4.2] conns=[Wye Wye Wye] kvs=[13.3367912182804 0.22 0.22] kvas=[5 5 5] %loadloss=2.1 %noloadloss=0.7
New Linecode.LC_MRT_TRF_2_1420A_1 nphases=1 basefreq=60 r1=15000 x1=0 units=km normamps=0
New Linecode.LC_MRT_TRF_2_1420A_2 nphases=2 basefreq=60 r1=15000 x1=0 units=km normamps=0
New Linecode.LC_MRT_TRF_2_1420A_3 nphases=3 basefreq=60 r1=15000 x1=0 units=km normamps=0
New Linecode.LC_MRT_TRF_2_1420A_4 nphases=4 basefreq=60 r1=15000 x1=0 units=km normamps=0
New Line.Resist_MTR_TRF_2_1420A phases=1 bus1=73521.3 bus2= MRT_73521TRF_2_1420A.3 linecode=LC_MRT_TRF_2_1420A_1 length=0.001 units=km
New Reactor.TRF_2_1420A_R phases=1 bus1=ET2_1420.4 R=15 X=0 basefreq=60
New Transformer.TRF_2_1422A phases=3 windings=2 buses=[70401.1.2.3 ET2_1422.1.2.3.4] conns=[Delta Wye] kvs=[23.1 0.38] kvas=[15 15] %loadloss=2.5 %noloadloss=0.633333
New Reactor.TRF_2_1422A_R phases=1 bus1=ET2_1422.4 R=15 X=0 basefreq=60
New Transformer.TRF_2_1423A phases=3 windings=2 buses=[11761.1.2.3 ET2_1423.1.2.3.4] conns=[Delta Wye] kvs=[23.1 0.38] kvas=[15 15] %loadloss=2.5 %noloadloss=0.633333
New Reactor.TRF_2_1423A_R phases=1 bus1=ET2_1423.4 R=15 X=0 basefreq=60
New Transformer.TRF_2_1444A phases=3 windings=2 buses=[43311.1.2.3 ET2_1444.1.2.3.4] conns=[Delta Wye] kvs=[23.1 0.38] kvas=[45 45] %loadloss=1.866667 %noloadloss=0.477777
New Reactor.TRF_2_1444A_R phases=1 bus1=ET2_1444.4 R=15 X=0 basefreq=60
New Transformer.TRF_2_1477A phases=1 windings=3 buses=[MRT_19131TRF_2_1477A.1 ET2_1477.1.4 ET2_1477.4.2] conns=[Wye Wye Wye] kvs=[13.3367912182804 0.22 0.22] kvas=[5 5 5] %loadloss=2.1 %noloadloss=0.7
New Linecode.LC_MRT_TRF_2_1477A_1 nphases=1 basefreq=60 r1=15000 x1=0 units=km normamps=0
New Linecode.LC_MRT_TRF_2_1477A_2 nphases=2 basefreq=60 r1=15000 x1=0 units=km normamps=0
New Linecode.LC_MRT_TRF_2_1477A_3 nphases=3 basefreq=60 r1=15000 x1=0 units=km normamps=0
New Linecode.LC_MRT_TRF_2_1477A_4 nphases=4 basefreq=60 r1=15000 x1=0 units=km normamps=0
New Line.Resist_MTR_TRF_2_1477A phases=1 bus1=19131.1 bus2= MRT_19131TRF_2_1477A.1 linecode=LC_MRT_TRF_2_1477A_1 length=0.001 units=km
New Reactor.TRF_2_1477A_R phases=1 bus1=ET2_1477.4 R=15 X=0 basefreq=60
New Transformer.TRF_2_1479A phases=1 windings=3 buses=[MRT_66351TRF_2_1479A.2 ET2_1479.1.4 ET2_1479.4.2] conns=[Wye Wye Wye] kvs=[13.3367912182804 0.22 0.22] kvas=[25 25 25] %loadloss=1.56 %noloadloss=0.36
New Linecode.LC_MRT_TRF_2_1479A_1 nphases=1 basefreq=60 r1=15000 x1=0 units=km normamps=0
New Linecode.LC_MRT_TRF_2_1479A_2 nphases=2 basefreq=60 r1=15000 x1=0 units=km normamps=0
New Linecode.LC_MRT_TRF_2_1479A_3 nphases=3 basefreq=60 r1=15000 x1=0 units=km normamps=0
New Linecode.LC_MRT_TRF_2_1479A_4 nphases=4 basefreq=60 r1=15000 x1=0 units=km normamps=0
New Line.Resist_MTR_TRF_2_1479A phases=1 bus1=66351.2 bus2= MRT_66351TRF_2_1479A.2 linecode=LC_MRT_TRF_2_1479A_1 length=0.001 units=km
New Reactor.TRF_2_1479A_R phases=1 bus1=ET2_1479.4 R=15 X=0 basefreq=60
New Transformer.TRF_2_1480A phases=1 windings=3 buses=[MRT_58191TRF_2_1480A.2 ET2_1480.1.4 ET2_1480.4.2] conns=[Wye Wye Wye] kvs=[13.3367912182804 0.22 0.22] kvas=[25 25 25] %loadloss=1.56 %noloadloss=0.36
New Linecode.LC_MRT_TRF_2_1480A_1 nphases=1 basefreq=60 r1=15000 x1=0 units=km normamps=0
New Linecode.LC_MRT_TRF_2_1480A_2 nphases=2 basefreq=60 r1=15000 x1=0 units=km normamps=0
New Linecode.LC_MRT_TRF_2_1480A_3 nphases=3 basefreq=60 r1=15000 x1=0 units=km normamps=0
New Linecode.LC_MRT_TRF_2_1480A_4 nphases=4 basefreq=60 r1=15000 x1=0 units=km normamps=0
New Line.Resist_MTR_TRF_2_1480A phases=1 bus1=58191.2 bus2= MRT_58191TRF_2_1480A.2 linecode=LC_MRT_TRF_2_1480A_1 length=0.001 units=km
New Reactor.TRF_2_1480A_R phases=1 bus1=ET2_1480.4 R=15 X=0 basefreq=60
New Transformer.TRF_2_1481A phases=1 windings=3 buses=[MRT_9471TRF_2_1481A.2 ET2_1481.1.4 ET2_1481.4.2] conns=[Wye Wye Wye] kvs=[13.3367912182804 0.22 0.22] kvas=[10 10 10] %loadloss=1.95 %noloadloss=0.5
New Linecode.LC_MRT_TRF_2_1481A_1 nphases=1 basefreq=60 r1=15000 x1=0 units=km normamps=0
New Linecode.LC_MRT_TRF_2_1481A_2 nphases=2 basefreq=60 r1=15000 x1=0 units=km normamps=0
New Linecode.LC_MRT_TRF_2_1481A_3 nphases=3 basefreq=60 r1=15000 x1=0 units=km normamps=0
New Linecode.LC_MRT_TRF_2_1481A_4 nphases=4 basefreq=60 r1=15000 x1=0 units=km normamps=0
New Line.Resist_MTR_TRF_2_1481A phases=1 bus1=9471.2 bus2= MRT_9471TRF_2_1481A.2 linecode=LC_MRT_TRF_2_1481A_1 length=0.001 units=km
New Reactor.TRF_2_1481A_R phases=1 bus1=ET2_1481.4 R=15 X=0 basefreq=60
New Transformer.TRF_2_1490A phases=3 windings=2 buses=[371561.1.2.3 ET2_1490.1.2.3.4] conns=[Delta Wye] kvs=[23.1 0.38] kvas=[30 30] %loadloss=2.1 %noloadloss=0.533333
New Reactor.TRF_2_1490A_R phases=1 bus1=ET2_1490.4 R=15 X=0 basefreq=60
New Transformer.TRF_2_1502A phases=1 windings=3 buses=[MRT_74541TRF_2_1502A.3 ET2_1502.1.4 ET2_1502.4.2] conns=[Wye Wye Wye] kvs=[13.3367912182804 0.22 0.22] kvas=[5 5 5] %loadloss=2.1 %noloadloss=0.7
New Linecode.LC_MRT_TRF_2_1502A_1 nphases=1 basefreq=60 r1=15000 x1=0 units=km normamps=0
New Linecode.LC_MRT_TRF_2_1502A_2 nphases=2 basefreq=60 r1=15000 x1=0 units=km normamps=0
New Linecode.LC_MRT_TRF_2_1502A_3 nphases=3 basefreq=60 r1=15000 x1=0 units=km normamps=0
New Linecode.LC_MRT_TRF_2_1502A_4 nphases=4 basefreq=60 r1=15000 x1=0 units=km normamps=0
New Line.Resist_MTR_TRF_2_1502A phases=1 bus1=74541.3 bus2= MRT_74541TRF_2_1502A.3 linecode=LC_MRT_TRF_2_1502A_1 length=0.001 units=km
New Reactor.TRF_2_1502A_R phases=1 bus1=ET2_1502.4 R=15 X=0 basefreq=60
New Transformer.TRF_2_1506A phases=1 windings=3 buses=[MRT_75741TRF_2_1506A.2 ET2_1506.1.4 ET2_1506.4.2] conns=[Wye Wye Wye] kvs=[13.3367912182804 0.22 0.22] kvas=[10 10 10] %loadloss=1.95 %noloadloss=0.5
New Linecode.LC_MRT_TRF_2_1506A_1 nphases=1 basefreq=60 r1=15000 x1=0 units=km normamps=0
New Linecode.LC_MRT_TRF_2_1506A_2 nphases=2 basefreq=60 r1=15000 x1=0 units=km normamps=0
New Linecode.LC_MRT_TRF_2_1506A_3 nphases=3 basefreq=60 r1=15000 x1=0 units=km normamps=0
New Linecode.LC_MRT_TRF_2_1506A_4 nphases=4 basefreq=60 r1=15000 x1=0 units=km normamps=0
New Line.Resist_MTR_TRF_2_1506A phases=1 bus1=75741.2 bus2= MRT_75741TRF_2_1506A.2 linecode=LC_MRT_TRF_2_1506A_1 length=0.001 units=km
New Reactor.TRF_2_1506A_R phases=1 bus1=ET2_1506.4 R=15 X=0 basefreq=60
New Transformer.TRF_2_1508A phases=3 windings=2 buses=[69081.1.2.3 ET2_1508.1.2.3.4] conns=[Delta Wye] kvs=[23.1 0.38] kvas=[45 45] %loadloss=1.866667 %noloadloss=0.477777
New Reactor.TRF_2_1508A_R phases=1 bus1=ET2_1508.4 R=15 X=0 basefreq=60
New Transformer.TRF_2_1523A phases=1 windings=3 buses=[MRT_4591TRF_2_1523A.2 ET2_1523.1.4 ET2_1523.4.2] conns=[Wye Wye Wye] kvs=[13.3367912182804 0.22 0.22] kvas=[10 10 10] %loadloss=1.95 %noloadloss=0.5
New Linecode.LC_MRT_TRF_2_1523A_1 nphases=1 basefreq=60 r1=15000 x1=0 units=km normamps=0
New Linecode.LC_MRT_TRF_2_1523A_2 nphases=2 basefreq=60 r1=15000 x1=0 units=km normamps=0
New Linecode.LC_MRT_TRF_2_1523A_3 nphases=3 basefreq=60 r1=15000 x1=0 units=km normamps=0
New Linecode.LC_MRT_TRF_2_1523A_4 nphases=4 basefreq=60 r1=15000 x1=0 units=km normamps=0
New Line.Resist_MTR_TRF_2_1523A phases=1 bus1=4591.2 bus2= MRT_4591TRF_2_1523A.2 linecode=LC_MRT_TRF_2_1523A_1 length=0.001 units=km
New Reactor.TRF_2_1523A_R phases=1 bus1=ET2_1523.4 R=15 X=0 basefreq=60
New Transformer.TRF_2_1535A phases=1 windings=3 buses=[MRT_68031TRF_2_1535A.3 ET2_1535.1.4 ET2_1535.4.2] conns=[Wye Wye Wye] kvs=[13.3367912182804 0.22 0.22] kvas=[5 5 5] %loadloss=2.1 %noloadloss=0.7
New Linecode.LC_MRT_TRF_2_1535A_1 nphases=1 basefreq=60 r1=15000 x1=0 units=km normamps=0
New Linecode.LC_MRT_TRF_2_1535A_2 nphases=2 basefreq=60 r1=15000 x1=0 units=km normamps=0
New Linecode.LC_MRT_TRF_2_1535A_3 nphases=3 basefreq=60 r1=15000 x1=0 units=km normamps=0
New Linecode.LC_MRT_TRF_2_1535A_4 nphases=4 basefreq=60 r1=15000 x1=0 units=km normamps=0
New Line.Resist_MTR_TRF_2_1535A phases=1 bus1=68031.3 bus2= MRT_68031TRF_2_1535A.3 linecode=LC_MRT_TRF_2_1535A_1 length=0.001 units=km
New Reactor.TRF_2_1535A_R phases=1 bus1=ET2_1535.4 R=15 X=0 basefreq=60
New Transformer.TRF_2_1570A phases=1 windings=3 buses=[MRT_8601TRF_2_1570A.2 ET2_1570.1.4 ET2_1570.4.2] conns=[Wye Wye Wye] kvs=[13.3367912182804 0.22 0.22] kvas=[10 10 10] %loadloss=1.95 %noloadloss=0.5
New Linecode.LC_MRT_TRF_2_1570A_1 nphases=1 basefreq=60 r1=15000 x1=0 units=km normamps=0
New Linecode.LC_MRT_TRF_2_1570A_2 nphases=2 basefreq=60 r1=15000 x1=0 units=km normamps=0
New Linecode.LC_MRT_TRF_2_1570A_3 nphases=3 basefreq=60 r1=15000 x1=0 units=km normamps=0
New Linecode.LC_MRT_TRF_2_1570A_4 nphases=4 basefreq=60 r1=15000 x1=0 units=km normamps=0
New Line.Resist_MTR_TRF_2_1570A phases=1 bus1=8601.2 bus2= MRT_8601TRF_2_1570A.2 linecode=LC_MRT_TRF_2_1570A_1 length=0.001 units=km
New Reactor.TRF_2_1570A_R phases=1 bus1=ET2_1570.4 R=15 X=0 basefreq=60
New Transformer.TRF_2_1572A phases=1 windings=3 buses=[MRT_60091TRF_2_1572A.3 ET2_1572.1.4 ET2_1572.4.2] conns=[Wye Wye Wye] kvs=[13.3367912182804 0.22 0.22] kvas=[10 10 10] %loadloss=1.95 %noloadloss=0.5
New Linecode.LC_MRT_TRF_2_1572A_1 nphases=1 basefreq=60 r1=15000 x1=0 units=km normamps=0
New Linecode.LC_MRT_TRF_2_1572A_2 nphases=2 basefreq=60 r1=15000 x1=0 units=km normamps=0
New Linecode.LC_MRT_TRF_2_1572A_3 nphases=3 basefreq=60 r1=15000 x1=0 units=km normamps=0
New Linecode.LC_MRT_TRF_2_1572A_4 nphases=4 basefreq=60 r1=15000 x1=0 units=km normamps=0
New Line.Resist_MTR_TRF_2_1572A phases=1 bus1=60091.3 bus2= MRT_60091TRF_2_1572A.3 linecode=LC_MRT_TRF_2_1572A_1 length=0.001 units=km
New Reactor.TRF_2_1572A_R phases=1 bus1=ET2_1572.4 R=15 X=0 basefreq=60
New Transformer.TRF_2_158A phases=3 windings=2 buses=[29541.1.2.3 ET2_158.1.2.3.4] conns=[Delta Wye] kvs=[23.1 0.38] kvas=[15 15] %loadloss=2.5 %noloadloss=0.633333
New Reactor.TRF_2_158A_R phases=1 bus1=ET2_158.4 R=15 X=0 basefreq=60
New Transformer.TRF_2_159A phases=3 windings=2 buses=[71441.1.2.3 ET2_159.1.2.3.4] conns=[Delta Wye] kvs=[23.1 0.38] kvas=[30 30] %loadloss=2.1 %noloadloss=0.533333
New Reactor.TRF_2_159A_R phases=1 bus1=ET2_159.4 R=15 X=0 basefreq=60
New Transformer.TRF_2_1595A phases=1 windings=3 buses=[MRT_8711TRF_2_1595A.2 ET2_1595.1.4 ET2_1595.4.2] conns=[Wye Wye Wye] kvs=[13.3367912182804 0.22 0.22] kvas=[10 10 10] %loadloss=1.95 %noloadloss=0.5
New Linecode.LC_MRT_TRF_2_1595A_1 nphases=1 basefreq=60 r1=15000 x1=0 units=km normamps=0
New Linecode.LC_MRT_TRF_2_1595A_2 nphases=2 basefreq=60 r1=15000 x1=0 units=km normamps=0
New Linecode.LC_MRT_TRF_2_1595A_3 nphases=3 basefreq=60 r1=15000 x1=0 units=km normamps=0
New Linecode.LC_MRT_TRF_2_1595A_4 nphases=4 basefreq=60 r1=15000 x1=0 units=km normamps=0
New Line.Resist_MTR_TRF_2_1595A phases=1 bus1=8711.2 bus2= MRT_8711TRF_2_1595A.2 linecode=LC_MRT_TRF_2_1595A_1 length=0.001 units=km
New Reactor.TRF_2_1595A_R phases=1 bus1=ET2_1595.4 R=15 X=0 basefreq=60
New Transformer.TRF_2_160A phases=3 windings=2 buses=[70331.1.2.3 ET2_160.1.2.3.4] conns=[Delta Wye] kvs=[23.1 0.38] kvas=[112.5 112.5] %loadloss=1.475556 %noloadloss=0.377777
New Reactor.TRF_2_160A_R phases=1 bus1=ET2_160.4 R=15 X=0 basefreq=60
New Transformer.TRF_2_161A phases=3 windings=2 buses=[69311.1.2.3 ET2_161.1.2.3.4] conns=[Delta Wye] kvs=[23.1 0.38] kvas=[45 45] %loadloss=1.866667 %noloadloss=0.477777
New Reactor.TRF_2_161A_R phases=1 bus1=ET2_161.4 R=15 X=0 basefreq=60
New Transformer.TRF_2_162A phases=3 windings=2 buses=[248591.1.2.3 ET2_162.1.2.3.4] conns=[Delta Wye] kvs=[23.1 0.38] kvas=[30 30] %loadloss=2.1 %noloadloss=0.533333
New Reactor.TRF_2_162A_R phases=1 bus1=ET2_162.4 R=15 X=0 basefreq=60
New Transformer.TRF_2_163A phases=3 windings=2 buses=[74481.1.2.3 ET2_163.1.2.3.4] conns=[Delta Wye] kvs=[23.1 0.38] kvas=[15 15] %loadloss=2.5 %noloadloss=0.633333
New Reactor.TRF_2_163A_R phases=1 bus1=ET2_163.4 R=15 X=0 basefreq=60
New Transformer.TRF_2_164A phases=3 windings=2 buses=[13791.1.2.3 ET2_164.1.2.3.4] conns=[Delta Wye] kvs=[23.1 0.38] kvas=[15 15] %loadloss=2.5 %noloadloss=0.633333
New Reactor.TRF_2_164A_R phases=1 bus1=ET2_164.4 R=15 X=0 basefreq=60
New Transformer.TRF_2_1645A phases=1 windings=3 buses=[MRT_60771TRF_2_1645A.2 ET2_1645.1.4 ET2_1645.4.2] conns=[Wye Wye Wye] kvs=[13.3367912182804 0.22 0.22] kvas=[10 10 10] %loadloss=1.95 %noloadloss=0.5
New Linecode.LC_MRT_TRF_2_1645A_1 nphases=1 basefreq=60 r1=15000 x1=0 units=km normamps=0
New Linecode.LC_MRT_TRF_2_1645A_2 nphases=2 basefreq=60 r1=15000 x1=0 units=km normamps=0
New Linecode.LC_MRT_TRF_2_1645A_3 nphases=3 basefreq=60 r1=15000 x1=0 units=km normamps=0
New Linecode.LC_MRT_TRF_2_1645A_4 nphases=4 basefreq=60 r1=15000 x1=0 units=km normamps=0
New Line.Resist_MTR_TRF_2_1645A phases=1 bus1=60771.2 bus2= MRT_60771TRF_2_1645A.2 linecode=LC_MRT_TRF_2_1645A_1 length=0.001 units=km
New Reactor.TRF_2_1645A_R phases=1 bus1=ET2_1645.4 R=15 X=0 basefreq=60
New Transformer.TRF_2_1646A phases=1 windings=3 buses=[MRT_8781TRF_2_1646A.2 ET2_1646.1.4 ET2_1646.4.2] conns=[Wye Wye Wye] kvs=[13.3367912182804 0.22 0.22] kvas=[15 15 15] %loadloss=1.766667 %noloadloss=0.433333
New Linecode.LC_MRT_TRF_2_1646A_1 nphases=1 basefreq=60 r1=15000 x1=0 units=km normamps=0
New Linecode.LC_MRT_TRF_2_1646A_2 nphases=2 basefreq=60 r1=15000 x1=0 units=km normamps=0
New Linecode.LC_MRT_TRF_2_1646A_3 nphases=3 basefreq=60 r1=15000 x1=0 units=km normamps=0
New Linecode.LC_MRT_TRF_2_1646A_4 nphases=4 basefreq=60 r1=15000 x1=0 units=km normamps=0
New Line.Resist_MTR_TRF_2_1646A phases=1 bus1=8781.2 bus2= MRT_8781TRF_2_1646A.2 linecode=LC_MRT_TRF_2_1646A_1 length=0.001 units=km
New Reactor.TRF_2_1646A_R phases=1 bus1=ET2_1646.4 R=15 X=0 basefreq=60
New Transformer.TRF_2_165A phases=3 windings=2 buses=[19611.1.2.3 ET2_165.1.2.3.4] conns=[Delta Wye] kvs=[23.1 0.38] kvas=[15 15] %loadloss=2.5 %noloadloss=0.633333
New Reactor.TRF_2_165A_R phases=1 bus1=ET2_165.4 R=15 X=0 basefreq=60
New Transformer.TRF_2_166A phases=3 windings=2 buses=[59071.1.2.3 ET2_166.1.2.3.4] conns=[Delta Wye] kvs=[23.1 0.38] kvas=[30 30] %loadloss=2.1 %noloadloss=0.533333
New Reactor.TRF_2_166A_R phases=1 bus1=ET2_166.4 R=15 X=0 basefreq=60
New Transformer.TRF_2_1667A phases=1 windings=3 buses=[MRT_432151TRF_2_1667A.2 ET2_1667.1.4 ET2_1667.4.2] conns=[Wye Wye Wye] kvs=[13.3367912182804 0.22 0.22] kvas=[5 5 5] %loadloss=2.1 %noloadloss=0.7
New Linecode.LC_MRT_TRF_2_1667A_1 nphases=1 basefreq=60 r1=15000 x1=0 units=km normamps=0
New Linecode.LC_MRT_TRF_2_1667A_2 nphases=2 basefreq=60 r1=15000 x1=0 units=km normamps=0
New Linecode.LC_MRT_TRF_2_1667A_3 nphases=3 basefreq=60 r1=15000 x1=0 units=km normamps=0
New Linecode.LC_MRT_TRF_2_1667A_4 nphases=4 basefreq=60 r1=15000 x1=0 units=km normamps=0
New Line.Resist_MTR_TRF_2_1667A phases=1 bus1=432151.2 bus2= MRT_432151TRF_2_1667A.2 linecode=LC_MRT_TRF_2_1667A_1 length=0.001 units=km
New Reactor.TRF_2_1667A_R phases=1 bus1=ET2_1667.4 R=15 X=0 basefreq=60
New Transformer.TRF_2_1866A phases=1 windings=3 buses=[MRT_686001TRF_2_1866A.3 ET2_1866.1.4 ET2_1866.4.2] conns=[Wye Wye Wye] kvs=[13.3367912182804 0.22 0.22] kvas=[10 10 10] %loadloss=1.95 %noloadloss=0.5
New Linecode.LC_MRT_TRF_2_1866A_1 nphases=1 basefreq=60 r1=15000 x1=0 units=km normamps=0
New Linecode.LC_MRT_TRF_2_1866A_2 nphases=2 basefreq=60 r1=15000 x1=0 units=km normamps=0
New Linecode.LC_MRT_TRF_2_1866A_3 nphases=3 basefreq=60 r1=15000 x1=0 units=km normamps=0
New Linecode.LC_MRT_TRF_2_1866A_4 nphases=4 basefreq=60 r1=15000 x1=0 units=km normamps=0
New Line.Resist_MTR_TRF_2_1866A phases=1 bus1=686001.3 bus2= MRT_686001TRF_2_1866A.3 linecode=LC_MRT_TRF_2_1866A_1 length=0.001 units=km
New Reactor.TRF_2_1866A_R phases=1 bus1=ET2_1866.4 R=15 X=0 basefreq=60
New Transformer.TRF_2_1891A phases=1 windings=3 buses=[MRT_21481TRF_2_1891A.3 ET2_1891.1.4 ET2_1891.4.2] conns=[Wye Wye Wye] kvs=[13.3367912182804 0.22 0.22] kvas=[10 10 10] %loadloss=1.95 %noloadloss=0.5
New Linecode.LC_MRT_TRF_2_1891A_1 nphases=1 basefreq=60 r1=15000 x1=0 units=km normamps=0
New Linecode.LC_MRT_TRF_2_1891A_2 nphases=2 basefreq=60 r1=15000 x1=0 units=km normamps=0
New Linecode.LC_MRT_TRF_2_1891A_3 nphases=3 basefreq=60 r1=15000 x1=0 units=km normamps=0
New Linecode.LC_MRT_TRF_2_1891A_4 nphases=4 basefreq=60 r1=15000 x1=0 units=km normamps=0
New Line.Resist_MTR_TRF_2_1891A phases=1 bus1=21481.3 bus2= MRT_21481TRF_2_1891A.3 linecode=LC_MRT_TRF_2_1891A_1 length=0.001 units=km
New Reactor.TRF_2_1891A_R phases=1 bus1=ET2_1891.4 R=15 X=0 basefreq=60
New Transformer.TRF_2_1918A phases=1 windings=3 buses=[MRT_621711TRF_2_1918A.2 ET2_1918.1.4 ET2_1918.4.2] conns=[Wye Wye Wye] kvs=[13.3367912182804 0.22 0.22] kvas=[10 10 10] %loadloss=1.95 %noloadloss=0.5
New Linecode.LC_MRT_TRF_2_1918A_1 nphases=1 basefreq=60 r1=15000 x1=0 units=km normamps=0
New Linecode.LC_MRT_TRF_2_1918A_2 nphases=2 basefreq=60 r1=15000 x1=0 units=km normamps=0
New Linecode.LC_MRT_TRF_2_1918A_3 nphases=3 basefreq=60 r1=15000 x1=0 units=km normamps=0
New Linecode.LC_MRT_TRF_2_1918A_4 nphases=4 basefreq=60 r1=15000 x1=0 units=km normamps=0
New Line.Resist_MTR_TRF_2_1918A phases=1 bus1=621711.2 bus2= MRT_621711TRF_2_1918A.2 linecode=LC_MRT_TRF_2_1918A_1 length=0.001 units=km
New Reactor.TRF_2_1918A_R phases=1 bus1=ET2_1918.4 R=15 X=0 basefreq=60
New Transformer.TRF_2_2213A phases=3 windings=2 buses=[66171.1.2.3 ET2_2213.1.2.3.4] conns=[Delta Wye] kvs=[23.1 0.38] kvas=[15 15] %loadloss=2.5 %noloadloss=0.633333
New Reactor.TRF_2_2213A_R phases=1 bus1=ET2_2213.4 R=15 X=0 basefreq=60
New Transformer.TRF_2_2214A phases=1 windings=3 buses=[MRT_256221TRF_2_2214A.2 ET2_2214.1.4 ET2_2214.4.2] conns=[Wye Wye Wye] kvs=[13.3367912182804 0.22 0.22] kvas=[15 15 15] %loadloss=1.766667 %noloadloss=0.433333
New Linecode.LC_MRT_TRF_2_2214A_1 nphases=1 basefreq=60 r1=15000 x1=0 units=km normamps=0
New Linecode.LC_MRT_TRF_2_2214A_2 nphases=2 basefreq=60 r1=15000 x1=0 units=km normamps=0
New Linecode.LC_MRT_TRF_2_2214A_3 nphases=3 basefreq=60 r1=15000 x1=0 units=km normamps=0
New Linecode.LC_MRT_TRF_2_2214A_4 nphases=4 basefreq=60 r1=15000 x1=0 units=km normamps=0
New Line.Resist_MTR_TRF_2_2214A phases=1 bus1=256221.2 bus2= MRT_256221TRF_2_2214A.2 linecode=LC_MRT_TRF_2_2214A_1 length=0.001 units=km
New Reactor.TRF_2_2214A_R phases=1 bus1=ET2_2214.4 R=15 X=0 basefreq=60
New Transformer.TRF_2_2243A phases=1 windings=3 buses=[MRT_344541TRF_2_2243A.1 ET2_2243.1.4 ET2_2243.4.2] conns=[Wye Wye Wye] kvs=[13.3367912182804 0.22 0.22] kvas=[10 10 10] %loadloss=1.95 %noloadloss=0.5
New Linecode.LC_MRT_TRF_2_2243A_1 nphases=1 basefreq=60 r1=15000 x1=0 units=km normamps=0
New Linecode.LC_MRT_TRF_2_2243A_2 nphases=2 basefreq=60 r1=15000 x1=0 units=km normamps=0
New Linecode.LC_MRT_TRF_2_2243A_3 nphases=3 basefreq=60 r1=15000 x1=0 units=km normamps=0
New Linecode.LC_MRT_TRF_2_2243A_4 nphases=4 basefreq=60 r1=15000 x1=0 units=km normamps=0
New Line.Resist_MTR_TRF_2_2243A phases=1 bus1=344541.1 bus2= MRT_344541TRF_2_2243A.1 linecode=LC_MRT_TRF_2_2243A_1 length=0.001 units=km
New Reactor.TRF_2_2243A_R phases=1 bus1=ET2_2243.4 R=15 X=0 basefreq=60
New Transformer.TRF_2_2282A phases=1 windings=3 buses=[MRT_43301TRF_2_2282A.3 ET2_2282.1.4 ET2_2282.4.2] conns=[Wye Wye Wye] kvs=[13.3367912182804 0.22 0.22] kvas=[15 15 15] %loadloss=1.766667 %noloadloss=0.433333
New Linecode.LC_MRT_TRF_2_2282A_1 nphases=1 basefreq=60 r1=15000 x1=0 units=km normamps=0
New Linecode.LC_MRT_TRF_2_2282A_2 nphases=2 basefreq=60 r1=15000 x1=0 units=km normamps=0
New Linecode.LC_MRT_TRF_2_2282A_3 nphases=3 basefreq=60 r1=15000 x1=0 units=km normamps=0
New Linecode.LC_MRT_TRF_2_2282A_4 nphases=4 basefreq=60 r1=15000 x1=0 units=km normamps=0
New Line.Resist_MTR_TRF_2_2282A phases=1 bus1=43301.3 bus2= MRT_43301TRF_2_2282A.3 linecode=LC_MRT_TRF_2_2282A_1 length=0.001 units=km
New Reactor.TRF_2_2282A_R phases=1 bus1=ET2_2282.4 R=15 X=0 basefreq=60
New Transformer.TRF_2_2431A phases=1 windings=3 buses=[MRT_329521TRF_2_2431A.1 ET2_2431.1.4 ET2_2431.4.2] conns=[Wye Wye Wye] kvs=[13.3367912182804 0.22 0.22] kvas=[10 10 10] %loadloss=1.95 %noloadloss=0.5
New Linecode.LC_MRT_TRF_2_2431A_1 nphases=1 basefreq=60 r1=15000 x1=0 units=km normamps=0
New Linecode.LC_MRT_TRF_2_2431A_2 nphases=2 basefreq=60 r1=15000 x1=0 units=km normamps=0
New Linecode.LC_MRT_TRF_2_2431A_3 nphases=3 basefreq=60 r1=15000 x1=0 units=km normamps=0
New Linecode.LC_MRT_TRF_2_2431A_4 nphases=4 basefreq=60 r1=15000 x1=0 units=km normamps=0
New Line.Resist_MTR_TRF_2_2431A phases=1 bus1=329521.1 bus2= MRT_329521TRF_2_2431A.1 linecode=LC_MRT_TRF_2_2431A_1 length=0.001 units=km
New Reactor.TRF_2_2431A_R phases=1 bus1=ET2_2431.4 R=15 X=0 basefreq=60
New Transformer.TRF_2_2436A phases=1 windings=3 buses=[MRT_329531TRF_2_2436A.1 ET2_2436.1.4 ET2_2436.4.2] conns=[Wye Wye Wye] kvs=[13.3367912182804 0.22 0.22] kvas=[25 25 25] %loadloss=1.56 %noloadloss=0.36
New Linecode.LC_MRT_TRF_2_2436A_1 nphases=1 basefreq=60 r1=15000 x1=0 units=km normamps=0
New Linecode.LC_MRT_TRF_2_2436A_2 nphases=2 basefreq=60 r1=15000 x1=0 units=km normamps=0
New Linecode.LC_MRT_TRF_2_2436A_3 nphases=3 basefreq=60 r1=15000 x1=0 units=km normamps=0
New Linecode.LC_MRT_TRF_2_2436A_4 nphases=4 basefreq=60 r1=15000 x1=0 units=km normamps=0
New Line.Resist_MTR_TRF_2_2436A phases=1 bus1=329531.1 bus2= MRT_329531TRF_2_2436A.1 linecode=LC_MRT_TRF_2_2436A_1 length=0.001 units=km
New Reactor.TRF_2_2436A_R phases=1 bus1=ET2_2436.4 R=15 X=0 basefreq=60
New Transformer.TRF_2_2490A phases=1 windings=3 buses=[MRT_332481TRF_2_2490A.2 ET2_2490.1.4 ET2_2490.4.2] conns=[Wye Wye Wye] kvs=[13.3367912182804 0.22 0.22] kvas=[10 10 10] %loadloss=1.95 %noloadloss=0.5
New Linecode.LC_MRT_TRF_2_2490A_1 nphases=1 basefreq=60 r1=15000 x1=0 units=km normamps=0
New Linecode.LC_MRT_TRF_2_2490A_2 nphases=2 basefreq=60 r1=15000 x1=0 units=km normamps=0
New Linecode.LC_MRT_TRF_2_2490A_3 nphases=3 basefreq=60 r1=15000 x1=0 units=km normamps=0
New Linecode.LC_MRT_TRF_2_2490A_4 nphases=4 basefreq=60 r1=15000 x1=0 units=km normamps=0
New Line.Resist_MTR_TRF_2_2490A phases=1 bus1=332481.2 bus2= MRT_332481TRF_2_2490A.2 linecode=LC_MRT_TRF_2_2490A_1 length=0.001 units=km
New Reactor.TRF_2_2490A_R phases=1 bus1=ET2_2490.4 R=15 X=0 basefreq=60
New Transformer.TRF_2_2491A phases=1 windings=3 buses=[MRT_332571TRF_2_2491A.2 ET2_2491.1.4 ET2_2491.4.2] conns=[Wye Wye Wye] kvs=[13.3367912182804 0.22 0.22] kvas=[10 10 10] %loadloss=1.95 %noloadloss=0.5
New Linecode.LC_MRT_TRF_2_2491A_1 nphases=1 basefreq=60 r1=15000 x1=0 units=km normamps=0
New Linecode.LC_MRT_TRF_2_2491A_2 nphases=2 basefreq=60 r1=15000 x1=0 units=km normamps=0
New Linecode.LC_MRT_TRF_2_2491A_3 nphases=3 basefreq=60 r1=15000 x1=0 units=km normamps=0
New Linecode.LC_MRT_TRF_2_2491A_4 nphases=4 basefreq=60 r1=15000 x1=0 units=km normamps=0
New Line.Resist_MTR_TRF_2_2491A phases=1 bus1=332571.2 bus2= MRT_332571TRF_2_2491A.2 linecode=LC_MRT_TRF_2_2491A_1 length=0.001 units=km
New Reactor.TRF_2_2491A_R phases=1 bus1=ET2_2491.4 R=15 X=0 basefreq=60
New Transformer.TRF_2_2629A phases=1 windings=3 buses=[MRT_156271TRF_2_2629A.2 ET2_2629.1.4 ET2_2629.4.2] conns=[Wye Wye Wye] kvs=[13.3367912182804 0.22 0.22] kvas=[10 10 10] %loadloss=1.95 %noloadloss=0.5
New Linecode.LC_MRT_TRF_2_2629A_1 nphases=1 basefreq=60 r1=15000 x1=0 units=km normamps=0