New Line.SBT_20010 phases=4 bus1=BT56751.1.2.3.4 bus2=BT56761.1.2.3.4 linecode=97_4 length=0.04 units=km
New Line.SBT_2607 phases=4 bus1=ET2_1035.1.2.3.4 bus2=BT56741.1.2.3.4 linecode=92_4 length=0.06259 units=km
New Line.SBT_2608 phases=4 bus1=BT56741.1.2.3.4 bus2=BT56751.1.2.3.4 linecode=92_4 length=0.08927 units=km
New Line.SBT_27366 phases=4 bus1=ET2_1097.1.2.3.4 bus2=BT132121.1.2.3.4 linecode=97_4 length=0.07295 units=km
New Line.SBT_29295 phases=2 bus1=BT41441.1.4 bus2=BT132101.1.4 linecode=60_2 length=0.01972 units=km
New Line.SBT_29296 phases=2 bus1=BT41441.1.4 bus2=BT750151.1.4 linecode=60_2 length=0.05782 units=km
New Line.SBT_29297 phases=2 bus1=BT750151.1.4 bus2=BT750161.1.4 linecode=60_2 length=0.02054 units=km
New Line.SBT_29298 phases=2 bus1=BT750161.1.4 bus2=BT750171.1.4 linecode=60_2 length=0.04717 units=km
New Line.SBT_29299 phases=2 bus1=BT750171.1.4 bus2=BT750181.1.4 linecode=60_2 length=0.04476 units=km
New Line.SBT_29300 phases=2 bus1=BT750171.1.4 bus2=BT750191.1.4 linecode=60_2 length=0.03336 units=km
New Line.SBT_29301 phases=2 bus1=BT750191.1.4 bus2=BT750201.1.4 linecode=60_2 length=0.04788 units=km
New Line.SBT_15671 phases=4 bus1=BT132121.1.2.3.4 bus2=BT329431.1.2.3.4 linecode=97_4 length=0.0821 units=km
New Line.SBT_15672 phases=4 bus1=ET2_1097.1.2.3.4 bus2=BT41441.1.2.3.4 linecode=97_4 length=0.08737 units=km
New Line.SBT_18031 phases=2 bus1=BT8511.1.4 bus2=BT8521.1.4 linecode=62_2 length=0.08115 units=km
New Line.SBT_13674 phases=3 bus1=BT41101.1.2.4 bus2=BT584671.1.2.4 linecode=44_3 length=0.09001 units=km
New Line.SBT_20452 phases=3 bus1=ET2_1099.1.2.4 bus2=BT41091.1.2.4 linecode=44_3 length=0.0841 units=km
New Line.SBT_20453 phases=3 bus1=BT41091.1.2.4 bus2=BT41101.1.2.4 linecode=44_3 length=0.0801 units=km
New Line.SBT_2584 phases=2 bus1=BT8521.1.4 bus2=BT8531.1.4 linecode=62_2 length=0.09409 units=km
New Line.SBT_3406 phases=2 bus1=ET2_1099.1.4 bus2=BT342811.1.4 linecode=62_2 length=0.05124 units=km
New Line.SBT_3407 phases=2 bus1=BT342811.1.4 bus2=BT8511.1.4 linecode=62_2 length=0.0478 units=km
New Line.SBT_4076 phases=4 bus1=ET2_1179.1.2.3.4 bus2=BT36601.1.2.3.4 linecode=92_4 length=0.09276 units=km
New Line.SBT_4077 phases=4 bus1=BT36601.1.2.3.4 bus2=BT18991.1.2.3.4 linecode=92_4 length=0.08778 units=km
New Line.SBT_4078 phases=4 bus1=BT18991.1.2.3.4 bus2=BT19001.1.2.3.4 linecode=92_4 length=0.08465 units=km
New Line.SBT_30373 phases=4 bus1=ET2_1195.1.2.3.4 bus2=BT760692.1.2.3.4 linecode=74_4 length=0.05771 units=km
New Line.SBT_25951 phases=2 bus1=BT351361.1.4 bus2=BT194631.1.4 linecode=60_2 length=0.06718 units=km
New Line.SBT_21241 phases=2 bus1=ET2_1219.1.4 bus2=BT49941.1.4 linecode=67_2 length=0.1016 units=km
New Line.SBT_20841 phases=2 bus1=BT49941.1.4 bus2=BT49961.1.4 linecode=60_2 length=0.18352 units=km
New Line.SBT_10170 phases=3 bus1=ET2_1219.1.2.4 bus2=BT49981.1.2.4 linecode=91_3 length=0.11642 units=km
New Line.SBT_12284 phases=2 bus1=BT49981.1.4 bus2=BT351361.1.4 linecode=60_2 length=0.08072 units=km
New Line.SBT_20843 phases=4 bus1=ET2_1220.1.2.3.4 bus2=BT62821.1.2.3.4 linecode=97_4 length=0.08911 units=km
New Line.SBT_20846 phases=4 bus1=BT62821.1.2.3.4 bus2=BT62831.1.2.3.4 linecode=97_4 length=0.0813 units=km
New Line.SBT_20847 phases=4 bus1=BT62831.1.2.3.4 bus2=BT62841.1.2.3.4 linecode=97_4 length=0.08249 units=km
New Line.SBT_20848 phases=4 bus1=BT62881.1.2.3.4 bus2=BT62901.1.2.3.4 linecode=97_4 length=0.07244 units=km
New Line.SBT_29737 phases=4 bus1=BT62891.1.2.3.4 bus2=BT754421.1.2.3.4 linecode=74_4 length=0.05814 units=km
New Line.SBT_4097 phases=4 bus1=ET2_1220.1.2.3.4 bus2=BT62861.1.2.3.4 linecode=97_4 length=0.07852 units=km
New Line.SBT_4107 phases=4 bus1=BT62861.1.2.3.4 bus2=BT4001.1.2.3.4 linecode=97_4 length=0.09244 units=km
New Line.SBT_4108 phases=4 bus1=BT62861.1.2.3.4 bus2=BT62871.1.2.3.4 linecode=97_4 length=0.08956 units=km
New Line.SBT_4109 phases=4 bus1=BT62871.1.2.3.4 bus2=BT62881.1.2.3.4 linecode=97_4 length=0.08022 units=km
New Line.SBT_4110 phases=4 bus1=BT62881.1.2.3.4 bus2=BT62891.1.2.3.4 linecode=97_4 length=0.04851 units=km
New Line.SBT_4111 phases=4 bus1=ET2_1221.1.2.3.4 bus2=BT4131.1.2.3.4 linecode=97_4 length=0.03256 units=km
New Line.SBT_5654 phases=3 bus1=BT64291.1.2.4 bus2=BT497781.1.2.4 linecode=59_3 length=0.05805 units=km
New Line.SBT_27446 phases=2 bus1=BT497781.1.4 bus2=BT62031.1.4 linecode=62_2 length=0.09043 units=km
New Line.SBT_2128 phases=3 bus1=BT64271.1.2.4 bus2=BT20681.1.2.4 linecode=59_3 length=0.07041 units=km
New Line.SBT_2129 phases=3 bus1=ET2_1223.1.2.4 bus2=BT64271.1.2.4 linecode=59_3 length=0.0679 units=km
New Line.SBT_2135 phases=3 bus1=ET2_1223.1.2.4 bus2=BT64291.1.2.4 linecode=59_3 length=0.05179 units=km
New Line.SBT_22084 phases=2 bus1=BT23381.2.4 bus2=BT574651.2.4 linecode=60_2 length=0.05433 units=km
New Line.SBT_20304 phases=2 bus1=ET2_1402.1.4 bus2=BT23361.1.4 linecode=60_2 length=0.10408 units=km
New Line.SBT_20305 phases=2 bus1=BT23391.2.4 bus2=BT23401.2.4 linecode=60_2 length=0.11275 units=km
New Line.SBT_3134 phases=2 bus1=ET2_1402.2.4 bus2=BT23381.2.4 linecode=60_2 length=0.02983 units=km
New Line.SBT_3135 phases=2 bus1=BT23381.2.4 bus2=BT23391.2.4 linecode=60_2 length=0.09633 units=km
New Line.SBT_3136 phases=2 bus1=BT23361.1.4 bus2=BT23371.1.4 linecode=60_2 length=0.08602 units=km
New Line.SBT_3137 phases=2 bus1=BT23401.2.4 bus2=BT23411.2.4 linecode=60_2 length=0.09278 units=km
New Line.SBT_2892 phases=3 bus1=ET2_1408.1.2.4 bus2=BT367541.1.2.4 linecode=91_3 length=0.08981 units=km
New Line.SBT_20166 phases=3 bus1=BT367541.1.2.4 bus2=BT348581.1.2.4 linecode=91_3 length=0.10184 units=km
New Line.SBT_15653 phases=2 bus1=ET2_1477.1.4 bus2=BT664771.1.4 linecode=62_2 length=0.089 units=km
New Line.SBT_20141 phases=2 bus1=BT66341.1.4 bus2=BT66331.1.4 linecode=62_2 length=0.12042 units=km
New Line.SBT_21243 phases=2 bus1=BT66321.1.4 bus2=BT621001.1.4 linecode=62_2 length=0.05162 units=km
New Line.SBT_22473 phases=2 bus1=BT621001.1.4 bus2=BT621011.1.4 linecode=62_2 length=0.06133 units=km
New Line.SBT_25372 phases=3 bus1=ET2_1479.1.2.4 bus2=BT619701.1.2.4 linecode=44_3 length=0.07301 units=km
New Line.SBT_2847 phases=2 bus1=ET2_1479.1.4 bus2=BT66341.1.4 linecode=62_2 length=0.0801 units=km
New Line.SBT_2652 phases=2 bus1=ET2_1479.1.4 bus2=BT66361.1.4 linecode=60_2 length=0.05522 units=km
New Line.SBT_6951 phases=2 bus1=BT66331.1.4 bus2=BT66321.1.4 linecode=62_2 length=0.1211 units=km
New Line.SBT_31749 phases=3 bus1=BT58181.1.2.4 bus2=BT58151.1.2.4 linecode=46_3 length=0.107 units=km
New Line.SBT_31750 phases=3 bus1=ET2_1480.1.2.4 bus2=BT58181.1.2.4 linecode=46_3 length=0.08841 units=km
New Line.SBT_2564 phases=3 bus1=BT58151.1.2.4 bus2=BT58161.1.2.4 linecode=44_3 length=0.14469 units=km
New Line.SBT_19990 phases=2 bus1=BT58161.1.4 bus2=BT58171.1.4 linecode=60_2 length=0.09361 units=km
New Line.SBT_19991 phases=2 bus1=BT9481.1.4 bus2=BT9491.1.4 linecode=60_2 length=0.12179 units=km
New Line.SBT_19992 phases=2 bus1=BT9551.2.4 bus2=BT9561.2.4 linecode=60_2 length=0.05882 units=km
New Line.SBT_19993 phases=2 bus1=BT9491.1.4 bus2=BT9501.1.4 linecode=60_2 length=0.09913 units=km
New Line.SBT_2575 phases=3 bus1=ET2_1481.1.2.4 bus2=BT9531.1.2.4 linecode=44_3 length=0.07503 units=km
New Line.SBT_2576 phases=3 bus1=BT9531.1.2.4 bus2=BT9541.1.2.4 linecode=44_3 length=0.0989 units=km
New Line.SBT_2577 phases=3 bus1=BT9541.1.2.4 bus2=BT9551.1.2.4 linecode=44_3 length=0.08023 units=km
New Line.SBT_2587 phases=2 bus1=BT9511.1.4 bus2=BT9521.1.4 linecode=60_2 length=0.07976 units=km
New Line.SBT_2578 phases=2 bus1=BT9551.1.4 bus2=BT9571.1.4 linecode=60_2 length=0.09105 units=km
New Line.SBT_2579 phases=2 bus1=BT9501.1.4 bus2=BT9511.1.4 linecode=60_2 length=0.06381 units=km
New Line.SBT_18351 phases=2 bus1=ET2_1481.1.4 bus2=BT9481.1.4 linecode=60_2 length=0.08045 units=km
New Line.SBT_13343 phases=4 bus1=ET2_1490.1.2.3.4 bus2=BT622151.1.2.3.4 linecode=73_4 length=0.03501 units=km
New Line.SBT_36387 phases=4 bus1=BT622151.1.2.3.4 bus2=BT623321.1.2.3.4 linecode=74_4 length=0.05641 units=km
New Line.SBT_36388 phases=4 bus1=BT623321.1.2.3.4 bus2=BT623331.1.2.3.4 linecode=74_4 length=0.04291 units=km
New Line.SBT_2588 phases=2 bus1=BT8611.1.4 bus2=BT8621.1.4 linecode=60_2 length=0.09231 units=km
New Line.SBT_20471 phases=2 bus1=BT8631.1.4 bus2=BT8641.1.4 linecode=60_2 length=0.09937 units=km
New Line.SBT_20000 phases=2 bus1=BT8621.1.4 bus2=BT8631.1.4 linecode=60_2 length=0.09902 units=km
New Line.SBT_28870 phases=2 bus1=ET2_1570.1.4 bus2=BT8611.1.4 linecode=60_2 length=0.11377 units=km
New Line.SBT_19746 phases=4 bus1=BT29531.1.2.3.4 bus2=BT29521.1.2.3.4 linecode=97_4 length=0.101 units=km
New Line.SBT_22160 phases=4 bus1=BT29511.1.2.3.4 bus2=BT518021.1.2.3.4 linecode=97_4 length=0.03214 units=km
New Line.SBT_22162 phases=4 bus1=BT518021.1.2.3.4 bus2=BT518881.1.2.3.4 linecode=97_4 length=0.04357 units=km
New Line.SBT_2143 phases=4 bus1=ET2_158.1.2.3.4 bus2=BT29531.1.2.3.4 linecode=97_4 length=0.09902 units=km
New Line.SBT_2144 phases=4 bus1=ET2_158.1.2.3.4 bus2=BT48851.1.2.3.4 linecode=97_4 length=0.09401 units=km
New Line.SBT_1880 phases=4 bus1=BT29521.1.2.3.4 bus2=BT29511.1.2.3.4 linecode=97_4 length=0.09027 units=km
New Line.SBT_1881 phases=4 bus1=BT48851.1.2.3.4 bus2=BT48861.1.2.3.4 linecode=97_4 length=0.10339 units=km
New Line.SBT_6417 phases=4 bus1=BT518881.1.2.3.4 bus2=BT518891.1.2.3.4 linecode=97_4 length=0.0322 units=km
New Line.SBT_3438 phases=2 bus1=ET2_1595.1.4 bus2=BT8721.1.4 linecode=60_2 length=0.08538 units=km
New Line.SBT_3450 phases=2 bus1=BT8721.1.4 bus2=BT22341.1.4 linecode=60_2 length=0.09035 units=km
New Line.SBT_6412 phases=4 bus1=ET2_161.1.2.3.4 bus2=BT287831.1.2.3.4 linecode=97_4 length=0.00632 units=km
New Line.SBT_35708 phases=3 bus1=ET2_1645.1.2.4 bus2=BT4541.1.2.4 linecode=44_3 length=0.06586 units=km
New Line.SBT_35710 phases=3 bus1=ET2_1645.1.2.4 bus2=BT4582.1.2.4 linecode=44_3 length=0.05587 units=km
New Line.SBT_20104 phases=3 bus1=BT8811.1.2.4 bus2=BT8821.1.2.4 linecode=44_3 length=0.10717 units=km
New Line.SBT_20105 phases=2 bus1=BT8851.1.4 bus2=BT9401.1.4 linecode=60_2 length=0.08853 units=km
New Line.SBT_20106 phases=2 bus1=ET2_1646.2.4 bus2=BT8791.2.4 linecode=60_2 length=0.27674 units=km
New Line.SBT_20213 phases=3 bus1=ET2_1646.1.2.4 bus2=BT8841.1.2.4 linecode=44_3 length=0.1012 units=km
New Line.SBT_20243 phases=3 bus1=BT8801.1.2.4 bus2=BT8811.1.2.4 linecode=44_3 length=0.09886 units=km
New Line.SBT_3029 phases=3 bus1=ET2_1646.1.2.4 bus2=BT8801.1.2.4 linecode=44_3 length=0.09014 units=km
New Line.SBT_2776 phases=3 bus1=BT8841.1.2.4 bus2=BT8851.1.2.4 linecode=44_3 length=0.11042 units=km
New Line.SBT_2778 phases=2 bus1=BT8821.1.4 bus2=BT8831.1.4 linecode=60_2 length=0.14004 units=km
New Line.SBT_2779 phases=2 bus1=BT9401.1.4 bus2=BT9411.1.4 linecode=60_2 length=0.10456 units=km
New Line.SBT_29934 phases=4 bus1=BT59031.1.2.3.4 bus2=BT59041.1.2.3.4 linecode=74_4 length=0.06498 units=km
New Line.SBT_29935 phases=4 bus1=BT59041.1.2.3.4 bus2=BT59051.1.2.3.4 linecode=74_4 length=0.05093 units=km
New Line.SBT_29936 phases=4 bus1=ET2_166.1.2.3.4 bus2=BT59081.1.2.3.4 linecode=74_4 length=0.08453 units=km
New Line.SBT_29937 phases=4 bus1=BT59081.1.2.3.4 bus2=BT756531.1.2.3.4 linecode=74_4 length=0.05891 units=km
New Line.SBT_29938 phases=4 bus1=BT756531.1.2.3.4 bus2=BT756541.1.2.3.4 linecode=74_4 length=0.0521 units=km
New Line.SBT_19926 phases=4 bus1=ET2_166.1.2.3.4 bus2=BT59061.1.2.3.4 linecode=74_4 length=0.04491 units=km
New Line.SBT_2468 phases=4 bus1=BT59021.1.2.3.4 bus2=BT59031.1.2.3.4 linecode=74_4 length=0.0596 units=km
New Line.SBT_2297 phases=4 bus1=BT59061.1.2.3.4 bus2=BT59021.1.2.3.4 linecode=74_4 length=0.0504 units=km
New Line.SBT_16426 phases=4 bus1=BT59031.1.2.3.4 bus2=BT668311.1.2.3.4 linecode=74_4 length=0.07911 units=km
New Line.SBT_20340 phases=2 bus1=ET2_1891.2.4 bus2=BT21501.2.4 linecode=62_2 length=0.07187 units=km
New Line.SBT_20374 phases=2 bus1=ET2_1891.1.4 bus2=BT21491.1.4 linecode=60_2 length=0.07169 units=km
New Line.SBT_22978 phases=2 bus1=BT14951.1.4 bus2=BT255181.1.4 linecode=62_2 length=0.09202 units=km
New Line.SBT_22195 phases=3 bus1=BT14941.1.2.4 bus2=BT14951.1.2.4 linecode=59_3 length=0.0841 units=km
New Line.SBT_6715 phases=3 bus1=ET2_1918.1.2.4 bus2=BT14901.1.2.4 linecode=59_3 length=0.08814 units=km
New Line.SBT_6717 phases=3 bus1=BT14901.1.2.4 bus2=BT14941.1.2.4 linecode=59_3 length=0.06812 units=km
New Line.SBT_13629 phases=2 bus1=ET2_2213.1.4 bus2=BT582361.1.4 linecode=62_2 length=0.04342 units=km
New Line.SBT_26240 phases=2 bus1=BT582361.1.4 bus2=BT66181.1.4 linecode=62_2 length=0.04005 units=km
New Line.SBT_27914 phases=2 bus1=BT735061.1.4 bus2=BT735071.1.4 linecode=62_2 length=0.06989 units=km
New Line.SBT_16646 phases=2 bus1=ET2_2282.1.4 bus2=BT735061.1.4 linecode=62_2 length=0.07139 units=km
New Line.SBT_16647 phases=2 bus1=BT735071.1.4 bus2=BT735081.1.4 linecode=62_2 length=0.04754 units=km
New Line.SBT_3385 phases=3 bus1=ET2_2694.1.2.4 bus2=BT451201.1.2.4 linecode=59_3 length=0.05561 units=km
New Line.SBT_3386 phases=3 bus1=BT451201.1.2.4 bus2=BT451211.1.2.4 linecode=59_3 length=0.12741 units=km
New Line.SBT_3387 phases=3 bus1=BT451211.1.2.4 bus2=BT451221.1.2.4 linecode=59_3 length=0.07903 units=km
New Line.SBT_35947 phases=2 bus1=BT451091.1.4 bus2=BT451081.1.4 linecode=62_2 length=0.10273 units=km
New Line.SBT_35948 phases=2 bus1=ET2_2694.1.4 bus2=BT451091.1.4 linecode=62_2 length=0.09052 units=km
New Line.SBT_3459 phases=2 bus1=BT451221.2.4 bus2=BT451231.2.4 linecode=62_2 length=0.06946 units=km
New Line.SBT_3460 phases=2 bus1=BT451231.2.4 bus2=BT447561.2.4 linecode=62_2 length=0.07341 units=km
New Line.SBT_28911 phases=2 bus1=ET2_2707.1.4 bus2=BT664841.1.4 linecode=62_2 length=0.08683 units=km
New Line.SBT_27360 phases=2 bus1=BT664841.1.4 bus2=BT664851.1.4 linecode=62_2 length=0.09454 units=km
New Line.SBT_26815 phases=3 bus1=ET2_2719.1.2.4 bus2=BT637971.1.2.4 linecode=76_3 length=0.06762 units=km
New Line.SBT_14674 phases=3 bus1=BT637971.1.2.4 bus2=BT637961.1.2.4 linecode=76_3 length=0.06835 units=km
New Line.SBT_19656 phases=3 bus1=BT637961.1.2.4 bus2=BT66141.1.2.4 linecode=76_3 length=0.07187 units=km
New Line.SBT_14060 phases=2 bus1=BT49971.1.4 bus2=BT622871.1.4 linecode=62_2 length=0.07341 units=km
New Line.SBT_14062 phases=2 bus1=BT622871.1.4 bus2=BT622881.1.4 linecode=62_2 length=0.10856 units=km
New Line.SBT_14063 phases=2 bus1=BT622881.1.4 bus2=BT622901.1.4 linecode=62_2 length=0.09941 units=km
New Line.SBT_14106 phases=2 bus1=BT622901.1.4 bus2=BT622911.1.4 linecode=62_2 length=0.11236 units=km
New Line.SBT_13488 phases=3 bus1=ET2_2802.1.2.4 bus2=BT49971.1.2.4 linecode=44_3 length=0.11384 units=km
New Line.SBT_14109 phases=2 bus1=ET2_2816.2.4 bus2=BT616491.2.4 linecode=62_2 length=0.05142 units=km
New Line.SBT_1932 phases=2 bus1=BT57001.2.4 bus2=BT66111.2.4 linecode=60_2 length=0.06693 units=km
New Line.SBT_19623 phases=2 bus1=BT57001.1.4 bus2=BT66101.1.4 linecode=60_2 length=0.04396 units=km
New Line.SBT_26311 phases=3 bus1=ET2_2992.1.2.4 bus2=BT57001.1.2.4 linecode=44_3 length=0.00165 units=km
New Line.SBT_12797 phases=4 bus1=ET2_307.1.2.3.4 bus2=BT476031.1.2.3.4 linecode=97_4 length=0.05523 units=km
New Line.SBT_12798 phases=4 bus1=BT476041.1.2.3.4 bus2=BT476051.1.2.3.4 linecode=97_4 length=0.06613 units=km
New Line.SBT_12802 phases=4 bus1=BT476031.1.2.3.4 bus2=BT476061.1.2.3.4 linecode=97_4 length=0.01879 units=km
New Line.SBT_12803 phases=4 bus1=BT476061.1.2.3.4 bus2=BT476071.1.2.3.4 linecode=97_4 length=0.03311 units=km
New Line.SBT_25773 phases=4 bus1=BT476031.1.2.3.4 bus2=BT476041.1.2.3.4 linecode=97_4 length=0.03547 units=km
New Line.SBT_25777 phases=4 bus1=BT476071.1.2.3.4 bus2=BT476081.1.2.3.4 linecode=97_4 length=0.03008 units=km
New Line.SBT_13454 phases=3 bus1=BT667991.1.2.4 bus2=BT618881.1.2.4 linecode=59_3 length=0.06399 units=km
New Line.SBT_13455 phases=3 bus1=BT618901.1.2.4 bus2=BT618921.1.2.4 linecode=59_3 length=0.02625 units=km
New Line.SBT_18275 phases=3 bus1=ET2_3153.1.2.4 bus2=BT618901.1.2.4 linecode=59_3 length=0.09192 units=km
New Line.SBT_26142 phases=3 bus1=BT618901.1.2.4 bus2=BT618911.1.2.4 linecode=59_3 length=0.0609 units=km
New Line.SBT_27762 phases=3 bus1=ET2_3153.1.2.4 bus2=BT667991.1.2.4 linecode=59_3 length=0.06329 units=km
New Line.SBT_32214 phases=3 bus1=BT599771.1.2.4 bus2=BT599701.1.2.4 linecode=91_3 length=0.0986 units=km
New Line.SBT_32215 phases=3 bus1=ET2_3154.1.2.4 bus2=BT599771.1.2.4 linecode=91_3 length=0.07849 units=km
New Line.SBT_13302 phases=2 bus1=ET2_3154.2.4 bus2=BT599791.2.4 linecode=62_2 length=0.08319 units=km
New Line.SBT_26143 phases=2 bus1=ET2_3155.1.4 bus2=BT599751.1.4 linecode=62_2 length=0.11245 units=km
New Line.SBT_26173 phases=2 bus1=BT599751.1.4 bus2=BT599761.1.4 linecode=62_2 length=0.15384 units=km
New Line.SBT_26134 phases=3 bus1=BT614811.1.2.4 bus2=BT614801.1.2.4 linecode=59_3 length=0.0821 units=km
New Line.SBT_26135 phases=3 bus1=ET2_3156.1.2.4 bus2=BT618761.1.2.4 linecode=59_3 length=0.08969 units=km
New Line.SBT_13439 phases=3 bus1=ET2_3156.1.2.4 bus2=BT618741.1.2.4 linecode=59_3 length=0.10177 units=km
New Line.SBT_13440 phases=3 bus1=BT614811.1.2.4 bus2=BT618781.1.2.4 linecode=59_3 length=0.04519 units=km
New Line.SBT_13441 phases=3 bus1=BT618761.1.2.4 bus2=BT618771.1.2.4 linecode=59_3 length=0.17579 units=km
New Line.SBT_18327 phases=3 bus1=BT618741.1.2.4 bus2=BT614811.1.2.4 linecode=59_3 length=0.08896 units=km
New Line.SBT_32218 phases=3 bus1=BT618761.1.2.4 bus2=BT618791.1.2.4 linecode=59_3 length=0.13922 units=km
New Line.SBT_13499 phases=3 bus1=ET2_3157.1.2.4 bus2=BT598701.1.2.4 linecode=59_3 length=0.10077 units=km
New Line.SBT_13501 phases=3 bus1=BT731631.1.2.4 bus2=BT598741.1.2.4 linecode=59_3 length=0.08157 units=km
New Line.SBT_13507 phases=2 bus1=BT83461.1.4 bus2=BT598711.1.4 linecode=62_2 length=0.0614 units=km
New Line.SBT_15524 phases=2 bus1=ET2_3157.1.4 bus2=BT83461.1.4 linecode=62_2 length=0.0614 units=km
New Line.SBT_26166 phases=3 bus1=BT598701.1.2.4 bus2=BT598721.1.2.4 linecode=59_3 length=0.08374 units=km
New Line.SBT_28454 phases=3 bus1=BT598721.1.2.4 bus2=BT731631.1.2.4 linecode=59_3 length=0.05685 units=km
New Line.SBT_32216 phases=3 bus1=ET2_3158.1.2.4 bus2=BT600001.1.2.4 linecode=59_3 length=0.16105 units=km
New Line.SBT_32217 phases=3 bus1=BT600001.1.2.4 bus2=BT600011.1.2.4 linecode=59_3 length=0.12491 units=km
New Line.SBT_26157 phases=2 bus1=ET2_3158.1.4 bus2=BT599991.1.4 linecode=62_2 length=0.14634 units=km
New Line.SBT_26159 phases=2 bus1=BT600161.2.4 bus2=BT600171.2.4 linecode=62_2 length=0.10885 units=km
New Line.SBT_26072 phases=2 bus1=BT600131.1.4 bus2=BT600121.1.4 linecode=62_2 length=0.09563 units=km
New Line.SBT_13327 phases=2 bus1=BT600171.2.4 bus2=BT600181.2.4 linecode=62_2 length=0.09976 units=km
New Line.SBT_13328 phases=3 bus1=ET2_3159.1.2.4 bus2=BT600131.1.2.4 linecode=59_3 length=0.13012 units=km
New Line.SBT_13329 phases=2 bus1=BT600121.1.4 bus2=BT600111.1.4 linecode=62_2 length=0.10179 units=km
New Line.SBT_13484 phases=2 bus1=ET2_3159.2.4 bus2=BT600161.2.4 linecode=62_2 length=0.12183 units=km
New Line.SBT_13483 phases=2 bus1=ET2_3160.1.4 bus2=BT600071.1.4 linecode=62_2 length=0.08171 units=km
New Line.SBT_26158 phases=2 bus1=ET2_3160.2.4 bus2=BT600061.2.4 linecode=62_2 length=0.0481 units=km
New Line.SBT_29586 phases=2 bus1=ET2_3365.1.4 bus2=BT753171.1.4 linecode=62_2 length=0.04311 units=km
New Line.SBT_29587 phases=2 bus1=BT753171.1.4 bus2=BT753161.1.4 linecode=62_2 length=0.0229 units=km
New Line.SBT_29588 phases=2 bus1=BT753171.1.4 bus2=BT753181.1.4 linecode=62_2 length=0.03137 units=km
New Line.SBT_29589 phases=2 bus1=BT753181.1.4 bus2=BT753191.1.4 linecode=62_2 length=0.03489 units=km
New Line.SBT_19607 phases=4 bus1=BT23551.1.2.3.4 bus2=BT23561.1.2.3.4 linecode=97_4 length=0.05463 units=km
New Line.SBT_1903 phases=4 bus1=BT23541.1.2.3.4 bus2=BT23551.1.2.3.4 linecode=97_4 length=0.07577 units=km
New Line.SBT_1904 phases=2 bus1=BT443111.2.4 bus2=BT443121.2.4 linecode=62_2 length=0.08329 units=km
New Line.SBT_1905 phases=2 bus1=BT443121.2.4 bus2=BT443131.2.4 linecode=62_2 length=0.13197 units=km
New Line.SBT_2103 phases=4 bus1=ET2_339.1.2.3.4 bus2=BT458401.1.2.3.4 linecode=73_4 length=0.00922 units=km
New Line.SBT_19720 phases=4 bus1=ET2_339.1.2.3.4 bus2=BT23541.1.2.3.4 linecode=97_4 length=0.04031 units=km
New Line.SBT_19721 phases=2 bus1=ET2_339.2.4 bus2=BT443111.2.4 linecode=62_2 length=0.10557 units=km
New Line.SBT_15652 phases=4 bus1=ET2_342.1.2.3.4 bus2=BT664711.1.2.3.4 linecode=97_4 length=0.03362 units=km
New Line.SBT_14420 phases=3 bus1=ET2_3437.1.2.4 bus2=BT351401.1.2.4 linecode=44_3 length=0.09246 units=km
New Line.SBT_20711 phases=2 bus1=ET2_3437.2.4 bus2=BT194671.2.4 linecode=60_2 length=0.12204 units=km
New Line.SBT_20712 phases=2 bus1=BT194671.2.4 bus2=BT351391.2.4 linecode=60_2 length=0.08062 units=km
New Line.SBT_14443 phases=3 bus1=ET2_346.1.2.4 bus2=BT65401.1.2.4 linecode=59_3 length=0.09998 units=km
New Line.SBT_1915 phases=4 bus1=ET2_346.1.2.3.4 bus2=BT65421.1.2.3.4 linecode=73_4 length=0.03711 units=km
New Line.SBT_1916 phases=4 bus1=BT65421.1.2.3.4 bus2=BT65431.1.2.3.4 linecode=73_4 length=0.04079 units=km
New Line.SBT_1917 phases=2 bus1=BT65391.2.4 bus2=BT451821.2.4 linecode=62_2 length=0.05579 units=km
New Line.SBT_1918 phases=3 bus1=BT65401.1.2.4 bus2=BT65391.1.2.4 linecode=59_3 length=0.09998 units=km
New Line.SBT_1931 phases=2 bus1=BT451821.2.4 bus2=BT9581.2.4 linecode=62_2 length=0.05482 units=km
New Line.SBT_19614 phases=2 bus1=BT65391.1.4 bus2=BT65381.1.4 linecode=62_2 length=0.0994 units=km
New Line.SBT_19622 phases=2 bus1=BT65381.1.4 bus2=BT451831.1.4 linecode=62_2 length=0.10593 units=km
New Line.SBT_19624 phases=4 bus1=ET2_347.1.2.3.4 bus2=BT66241.1.2.3.4 linecode=73_4 length=0.03905 units=km
New Line.SBT_1933 phases=2 bus1=ET2_347.1.4 bus2=BT66221.1.4 linecode=60_2 length=0.09139 units=km
New Line.SBT_20019 phases=4 bus1=BT66261.1.2.3.4 bus2=BT66271.1.2.3.4 linecode=73_4 length=0.12081 units=km
New Line.SBT_2616 phases=4 bus1=BT66241.1.2.3.4 bus2=BT66251.1.2.3.4 linecode=73_4 length=0.0645 units=km
New Line.SBT_2625 phases=2 bus1=BT66221.1.4 bus2=BT66211.1.4 linecode=60_2 length=0.11827 units=km
New Line.SBT_2626 phases=4 bus1=BT66251.1.2.3.4 bus2=BT66261.1.2.3.4 linecode=73_4 length=0.15195 units=km
New Line.SBT_2627 phases=2 bus1=BT66211.1.4 bus2=BT66201.1.4 linecode=60_2 length=0.14168 units=km
New Line.SBT_2628 phases=4 bus1=BT66271.1.2.3.4 bus2=BT66281.1.2.3.4 linecode=97_4 length=0.07103 units=km
New Line.SBT_2629 phases=4 bus1=ET2_348.1.2.3.4 bus2=BT75581.1.2.3.4 linecode=73_4 length=0.09 units=km
New Line.SBT_2630 phases=4 bus1=ET2_348.1.2.3.4 bus2=BT75601.1.2.3.4 linecode=73_4 length=0.08323 units=km
New Line.SBT_27368 phases=4 bus1=BT75571.1.2.3.4 bus2=BT430601.1.2.3.4 linecode=73_4 length=0.0828 units=km
New Line.SBT_31754 phases=4 bus1=BT75601.1.2.3.4 bus2=BT75612.1.2.3.4 linecode=73_4 length=0.08201 units=km
New Line.SBT_20020 phases=4 bus1=ET2_348.1.2.3.4 bus2=BT360581.1.2.3.4 linecode=75_4 length=0.06624 units=km
New Line.SBT_19996 phases=4 bus1=BT55681.1.2.3.4 bus2=BT55661.1.2.3.4 linecode=73_4 length=0.08349 units=km
New Line.SBT_20451 phases=4 bus1=BT75581.1.2.3.4 bus2=BT75571.1.2.3.4 linecode=73_4 length=0.08963 units=km
New Line.SBT_20457 phases=4 bus1=BT430601.1.2.3.4 bus2=BT74691.1.2.3.4 linecode=73_4 length=0.0758 units=km
New Line.SBT_20458 phases=4 bus1=BT74691.1.2.3.4 bus2=BT55681.1.2.3.4 linecode=73_4 length=0.07882 units=km
New Line.SBT_2583 phases=4 bus1=BT55661.1.2.3.4 bus2=BT55671.1.2.3.4 linecode=73_4 length=0.06576 units=km
New Line.SBT_3375 phases=3 bus1=ET2_349.1.2.4 bus2=BT74561.1.2.4 linecode=91_3 length=0.08851 units=km
New Line.SBT_3419 phases=3 bus1=BT74561.1.2.4 bus2=BT74581.1.2.4 linecode=91_3 length=0.08545 units=km
New Line.SBT_3420 phases=3 bus1=BT74581.1.2.4 bus2=BT74591.1.2.4 linecode=91_3 length=0.08349 units=km
New Line.SBT_3421 phases=3 bus1=BT74591.1.2.4 bus2=BT74601.1.2.4 linecode=91_3 length=0.09972 units=km
New Line.SBT_26171 phases=4 bus1=ET2_350.1.2.3.4 bus2=BT628711.1.2.3.4 linecode=97_4 length=0.0436 units=km
New Line.SBT_2873 phases=2 bus1=ET2_353.1.4 bus2=BT302121.1.4 linecode=62_2 length=0.05652 units=km
New Line.SBT_26551 phases=2 bus1=BT625741.2.4 bus2=BT625751.2.4 linecode=62_2 length=0.10823 units=km
New Line.SBT_18201 phases=2 bus1=BT625751.2.4 bus2=BT625761.2.4 linecode=62_2 length=0.09319 units=km
New Line.SBT_14200 phases=2 bus1=ET2_3543.2.4 bus2=BT625741.2.4 linecode=62_2 length=0.09791 units=km
New Line.SBT_14373 phases=2 bus1=BT625761.2.4 bus2=BT625771.2.4 linecode=62_2 length=0.08324 units=km
New Line.SBT_29433 phases=2 bus1=BT462371.1.4 bus2=BT582331.1.4 linecode=62_2 length=0.08317 units=km
New Line.SBT_33955 phases=2 bus1=BT582342.1.4 bus2=BT462371.1.4 linecode=62_2 length=0.07117 units=km
New Line.SBT_33958 phases=2 bus1=BT639022.1.4 bus2=BT582342.1.4 linecode=62_2 length=0.0459 units=km
New Line.SBT_33960 phases=2 bus1=ET2_3594.1.4 bus2=BT639022.1.4 linecode=62_2 length=0.05707 units=km
New Line.SBT_26341 phases=2 bus1=ET2_3596.1.4 bus2=BT4511.1.4 linecode=62_2 length=0.04801 units=km
New Line.SBT_13862 phases=2 bus1=ET2_3596.1.4 bus2=BT583581.1.4 linecode=62_2 length=0.08382 units=km
New Line.SBT_13863 phases=2 bus1=BT583581.1.4 bus2=BT583591.1.4 linecode=62_2 length=0.08911 units=km
New Line.SBT_14035 phases=2 bus1=BT602531.1.4 bus2=BT602541.1.4 linecode=62_2 length=0.11006 units=km
New Line.SBT_13861 phases=2 bus1=ET2_3668.1.4 bus2=BT602531.1.4 linecode=62_2 length=0.16488 units=km
New Line.SBT_26758 phases=2 bus1=BT602541.1.4 bus2=BT636981.1.4 linecode=62_2 length=0.10218 units=km
New Line.SBT_2648 phases=4 bus1=ET2_367.1.2.3.4 bus2=BT50901.1.2.3.4 linecode=97_4 length=0.05467 units=km
New Line.SBT_2656 phases=4 bus1=BT46451.1.2.3.4 bus2=BT46461.1.2.3.4 linecode=97_4 length=0.07654 units=km
New Line.SBT_2657 phases=4 bus1=BT46491.1.2.3.4 bus2=BT46501.1.2.3.4 linecode=97_4 length=0.08045 units=km
New Line.SBT_2601 phases=4 bus1=ET2_372.1.2.3.4 bus2=BT46451.1.2.3.4 linecode=97_4 length=0.10486 units=km
New Line.SBT_20036 phases=2 bus1=BT46451.1.4 bus2=BT304091.1.4 linecode=60_2 length=0.07156 units=km
New Line.SBT_20004 phases=4 bus1=ET2_372.1.2.3.4 bus2=BT46481.1.2.3.4 linecode=97_4 length=0.07739 units=km
New Line.SBT_20005 phases=4 bus1=BT46481.1.2.3.4 bus2=BT46491.1.2.3.4 linecode=97_4 length=0.07887 units=km
New Line.SBT_20037 phases=4 bus1=ET2_390.1.2.3.4 bus2=BT44481.1.2.3.4 linecode=97_4 length=0.08948 units=km
New Line.SBT_14550 phases=4 bus1=ET2_390.1.2.3.4 bus2=BT635321.1.2.3.4 linecode=92_4 length=0.04874 units=km
New Line.SBT_18288 phases=4 bus1=BT44491.1.2.3.4 bus2=BT44511.1.2.3.4 linecode=97_4 length=0.04558 units=km
New Line.SBT_2658 phases=4 bus1=BT635321.1.2.3.4 bus2=BT277541.1.2.3.4 linecode=92_4 length=0.03909 units=km
New Line.SBT_2659 phases=4 bus1=BT44481.1.2.3.4 bus2=BT44491.1.2.3.4 linecode=97_4 length=0.09124 units=km
New Line.SBT_31759 phases=4 bus1=BT44491.1.2.3.4 bus2=BT772391.1.2.3.4 linecode=97_4 length=0.12261 units=km
New Line.SBT_31760 phases=4 bus1=BT772391.1.2.3.4 bus2=BT772401.1.2.3.4 linecode=74_4 length=0.07076 units=km
New Line.SBT_4116 phases=4 bus1=BT44511.1.2.3.4 bus2=BT44521.1.2.3.4 linecode=97_4 length=0.04319 units=km
New Line.SBT_15216 phases=2 bus1=ET2_3907.2.4 bus2=BT639441.2.4 linecode=62_2 length=0.08006 units=km
New Line.SBT_31138 phases=4 bus1=BT711651.1.2.3.4 bus2=BT325201.1.2.3.4 linecode=74_4 length=0.03947 units=km
New Line.SBT_31139 phases=4 bus1=ET2_415.1.2.3.4 bus2=BT711651.1.2.3.4 linecode=74_4 length=0.02873 units=km
New Line.SBT_27447 phases=2 bus1=BT61691.1.4 bus2=BT240521.1.4 linecode=62_2 length=0.04173 units=km
New Line.SBT_15768 phases=3 bus1=ET2_4254.1.2.4 bus2=BT329411.1.2.4 linecode=59_3 length=0.06003 units=km
New Line.SBT_15808 phases=3 bus1=BT329411.1.2.4 bus2=BT62101.1.2.4 linecode=59_3 length=0.04305 units=km
New Line.SBT_15809 phases=2 bus1=BT62101.1.4 bus2=BT61691.1.4 linecode=62_2 length=0.03225 units=km
New Line.SBT_16013 phases=3 bus1=ET2_4470.1.2.4 bus2=BT720441.1.2.4 linecode=44_3 length=0.04833 units=km
New Line.SBT_27564 phases=3 bus1=ET2_4470.1.2.4 bus2=BT66371.1.2.4 linecode=59_3 length=0.0779 units=km
New Line.SBT_2880 phases=4 bus1=ET2_4641.1.2.3.4 bus2=BT71091.1.2.3.4 linecode=97_4 length=0.10673 units=km
New Line.SBT_20085 phases=4 bus1=ET2_4643.1.2.3.4 bus2=BT67851.1.2.3.4 linecode=97_4 length=0.045 units=km
New Line.SBT_20163 phases=4 bus1=ET2_4655.1.2.3.4 bus2=BT58441.1.2.3.4 linecode=97_4 length=0.08161 units=km
New Line.SBT_29290 phases=2 bus1=ET2_4966.1.4 bus2=BT642021.1.4 linecode=62_2 length=0.04867 units=km
New Line.SBT_29291 phases=2 bus1=BT642021.1.4 bus2=BT642001.1.4 linecode=62_2 length=0.07761 units=km
New Line.SBT_29292 phases=2 bus1=BT642001.1.4 bus2=BT642031.1.4 linecode=62_2 length=0.06107 units=km
New Line.SBT_29293 phases=2 bus1=BT642031.1.4 bus2=BT642011.1.4 linecode=62_2 length=0.06007 units=km
New Line.SBT_17225 phases=3 bus1=ET2_5113.1.2.4 bus2=BT49891.1.2.4 linecode=59_3 length=0.05694 units=km
New Line.SBT_17226 phases=4 bus1=ET2_5113.1.2.3.4 bus2=BT49881.1.2.3.4 linecode=73_4 length=0.04215 units=km
New Line.SBT_17654 phases=4 bus1=ET2_5206.1.2.3.4 bus2=BT638271.1.2.3.4 linecode=74_4 length=0.06749 units=km
New Line.SBT_26162 phases=3 bus1=ET2_5254.1.2.4 bus2=BT156261.1.2.4 linecode=44_3 length=0.08324 units=km
New Line.SBT_28349 phases=2 bus1=BT693421.1.4 bus2=BT693401.1.4 linecode=62_2 length=0.06173 units=km
New Line.SBT_17408 phases=2 bus1=ET2_5265.1.4 bus2=BT693421.1.4 linecode=62_2 length=0.07405 units=km
New Line.SBT_22000 phases=2 bus1=ET2_5265.1.4 bus2=BT693501.1.4 linecode=62_2 length=0.075 units=km
New Line.SBT_31123 phases=4 bus1=ET2_5295.1.2.3.4 bus2=BT766701.1.2.3.4 linecode=74_4 length=0.03468 units=km
New Line.SBT_31124 phases=4 bus1=BT766701.1.2.3.4 bus2=BT766711.1.2.3.4 linecode=74_4 length=0.03963 units=km
New Line.SBT_31125 phases=4 bus1=BT766711.1.2.3.4 bus2=BT766721.1.2.3.4 linecode=74_4 length=0.0425 units=km