New circuit.CER3_1_32 baseKV=13.8 phases=3 bus1=AL119226_1 pu=1
