New Load.IP_10216_MOD2 bus=BT_95820_1.2 phases=1 conn=Wye kv=0.22 kw=0.015 pf=0.92 Daily=cc38_Util Model=2 status=variable vminpu=0.93 vmaxpu=1.1 
New Load.IP_10216_MOD3 bus=BT_95820_1.2 phases=1 conn=Wye kv=0.22 kw=0.015 pf=0.92 Daily=cc38_Util Model=3 status=variable vminpu=0.93 vmaxpu=1.1 

New Load.IP_10218_MOD2 bus=BT_95832_1.3 phases=1 conn=Wye kv=0.219 kw=0.015 pf=0.92 Daily=cc38_Util Model=2 status=variable vminpu=0.93 vmaxpu=1.1 
New Load.IP_10218_MOD3 bus=BT_95832_1.3 phases=1 conn=Wye kv=0.219 kw=0.015 pf=0.92 Daily=cc38_Util Model=3 status=variable vminpu=0.93 vmaxpu=1.1 

New Load.IP_10219_MOD2 bus=BT_95838_1.3 phases=1 conn=Wye kv=0.219 kw=0.04 pf=0.92 Daily=cc38_Util Model=2 status=variable vminpu=0.93 vmaxpu=1.1 
New Load.IP_10219_MOD3 bus=BT_95838_1.3 phases=1 conn=Wye kv=0.219 kw=0.04 pf=0.92 Daily=cc38_Util Model=3 status=variable vminpu=0.93 vmaxpu=1.1 

New Load.IP_10220_MOD2 bus=BT_95841_1.3 phases=1 conn=Wye kv=0.219 kw=0.088 pf=0.92 Daily=cc38_Util Model=2 status=variable vminpu=0.93 vmaxpu=1.1 
New Load.IP_10220_MOD3 bus=BT_95841_1.3 phases=1 conn=Wye kv=0.219 kw=0.088 pf=0.92 Daily=cc38_Util Model=3 status=variable vminpu=0.93 vmaxpu=1.1 

New Load.IP_10221_MOD2 bus=BT_95843_1.3 phases=1 conn=Wye kv=0.219 kw=0.04 pf=0.92 Daily=cc38_Util Model=2 status=variable vminpu=0.93 vmaxpu=1.1 
New Load.IP_10221_MOD3 bus=BT_95843_1.3 phases=1 conn=Wye kv=0.219 kw=0.04 pf=0.92 Daily=cc38_Util Model=3 status=variable vminpu=0.93 vmaxpu=1.1 

New Load.IP_10284_MOD2 bus=BT_77348_1.2 phases=1 conn=Wye kv=0.22 kw=0.04 pf=0.92 Daily=cc38_Util Model=2 status=variable vminpu=0.93 vmaxpu=1.1 
New Load.IP_10284_MOD3 bus=BT_77348_1.2 phases=1 conn=Wye kv=0.22 kw=0.04 pf=0.92 Daily=cc38_Util Model=3 status=variable vminpu=0.93 vmaxpu=1.1 

New Load.IP_10432_MOD2 bus=BT_71675_1.3 phases=1 conn=Wye kv=0.219 kw=0.1375 pf=0.92 Daily=cc38_Util Model=2 status=variable vminpu=0.93 vmaxpu=1.1 
New Load.IP_10432_MOD3 bus=BT_71675_1.3 phases=1 conn=Wye kv=0.219 kw=0.1375 pf=0.92 Daily=cc38_Util Model=3 status=variable vminpu=0.93 vmaxpu=1.1 

New Load.IP_10545_MOD2 bus=BT_95430_1.3 phases=1 conn=Wye kv=0.219 kw=0.043 pf=0.92 Daily=cc38_Util Model=2 status=variable vminpu=0.93 vmaxpu=1.1 
New Load.IP_10545_MOD3 bus=BT_95430_1.3 phases=1 conn=Wye kv=0.219 kw=0.043 pf=0.92 Daily=cc38_Util Model=3 status=variable vminpu=0.93 vmaxpu=1.1 

New Load.IP_10546_MOD2 bus=BT_95432_1.3 phases=1 conn=Wye kv=0.219 kw=0.101 pf=0.92 Daily=cc38_Util Model=2 status=variable vminpu=0.93 vmaxpu=1.1 
New Load.IP_10546_MOD3 bus=BT_95432_1.3 phases=1 conn=Wye kv=0.219 kw=0.101 pf=0.92 Daily=cc38_Util Model=3 status=variable vminpu=0.93 vmaxpu=1.1 

New Load.IP_10549_MOD2 bus=BT_67154_1.2 phases=1 conn=Wye kv=0.219 kw=0.043 pf=0.92 Daily=cc38_Util Model=2 status=variable vminpu=0.93 vmaxpu=1.1 
New Load.IP_10549_MOD3 bus=BT_67154_1.2 phases=1 conn=Wye kv=0.219 kw=0.043 pf=0.92 Daily=cc38_Util Model=3 status=variable vminpu=0.93 vmaxpu=1.1 

New Load.IP_10552_MOD2 bus=BT_92228_1.2 phases=1 conn=Wye kv=0.22 kw=0.04 pf=0.92 Daily=cc38_Util Model=2 status=variable vminpu=0.93 vmaxpu=1.1 
New Load.IP_10552_MOD3 bus=BT_92228_1.2 phases=1 conn=Wye kv=0.22 kw=0.04 pf=0.92 Daily=cc38_Util Model=3 status=variable vminpu=0.93 vmaxpu=1.1 

New Load.IP_10708_MOD2 bus=BT_41878_1.2 phases=1 conn=Wye kv=0.22 kw=0.043 pf=0.92 Daily=cc38_Util Model=2 status=variable vminpu=0.93 vmaxpu=1.1 
New Load.IP_10708_MOD3 bus=BT_41878_1.2 phases=1 conn=Wye kv=0.22 kw=0.043 pf=0.92 Daily=cc38_Util Model=3 status=variable vminpu=0.93 vmaxpu=1.1 

New Load.IP_10715_MOD2 bus=BT_33089_1.1 phases=1 conn=Wye kv=0.22 kw=0.088 pf=0.92 Daily=cc38_Util Model=2 status=variable vminpu=0.93 vmaxpu=1.1 
New Load.IP_10715_MOD3 bus=BT_33089_1.1 phases=1 conn=Wye kv=0.22 kw=0.088 pf=0.92 Daily=cc38_Util Model=3 status=variable vminpu=0.93 vmaxpu=1.1 

New Load.IP_10890_MOD2 bus=BT_27248_1.3 phases=1 conn=Wye kv=0.219 kw=0.043 pf=0.92 Daily=cc38_Util Model=2 status=variable vminpu=0.93 vmaxpu=1.1 
New Load.IP_10890_MOD3 bus=BT_27248_1.3 phases=1 conn=Wye kv=0.219 kw=0.043 pf=0.92 Daily=cc38_Util Model=3 status=variable vminpu=0.93 vmaxpu=1.1 

New Load.IP_10896_MOD2 bus=BT_41018_1.3 phases=1 conn=Wye kv=0.219 kw=0.043 pf=0.92 Daily=cc38_Util Model=2 status=variable vminpu=0.93 vmaxpu=1.1 
New Load.IP_10896_MOD3 bus=BT_41018_1.3 phases=1 conn=Wye kv=0.219 kw=0.043 pf=0.92 Daily=cc38_Util Model=3 status=variable vminpu=0.93 vmaxpu=1.1 

New Load.IP_10897_MOD2 bus=BT_13715_1.3 phases=1 conn=Wye kv=0.219 kw=0.043 pf=0.92 Daily=cc38_Util Model=2 status=variable vminpu=0.93 vmaxpu=1.1 
New Load.IP_10897_MOD3 bus=BT_13715_1.3 phases=1 conn=Wye kv=0.219 kw=0.043 pf=0.92 Daily=cc38_Util Model=3 status=variable vminpu=0.93 vmaxpu=1.1 

New Load.IP_10951_MOD2 bus=BT_28294_1.1 phases=1 conn=Wye kv=0.22 kw=0.043 pf=0.92 Daily=cc38_Util Model=2 status=variable vminpu=0.93 vmaxpu=1.1 
New Load.IP_10951_MOD3 bus=BT_28294_1.1 phases=1 conn=Wye kv=0.22 kw=0.043 pf=0.92 Daily=cc38_Util Model=3 status=variable vminpu=0.93 vmaxpu=1.1 

New Load.IP_10968_MOD2 bus=BT_34754_1.1 phases=1 conn=Wye kv=0.219 kw=0.043 pf=0.92 Daily=cc38_Util Model=2 status=variable vminpu=0.93 vmaxpu=1.1 
New Load.IP_10968_MOD3 bus=BT_34754_1.1 phases=1 conn=Wye kv=0.219 kw=0.043 pf=0.92 Daily=cc38_Util Model=3 status=variable vminpu=0.93 vmaxpu=1.1 

New Load.IP_11025_MOD2 bus=BT_106050_1.1 phases=1 conn=Wye kv=0.22 kw=0.043 pf=0.92 Daily=cc38_Util Model=2 status=variable vminpu=0.93 vmaxpu=1.1 
New Load.IP_11025_MOD3 bus=BT_106050_1.1 phases=1 conn=Wye kv=0.22 kw=0.043 pf=0.92 Daily=cc38_Util Model=3 status=variable vminpu=0.93 vmaxpu=1.1 

New Load.IP_11133_MOD2 bus=BT_25597_1.2 phases=1 conn=Wye kv=0.22 kw=0.043 pf=0.92 Daily=cc38_Util Model=2 status=variable vminpu=0.93 vmaxpu=1.1 
New Load.IP_11133_MOD3 bus=BT_25597_1.2 phases=1 conn=Wye kv=0.22 kw=0.043 pf=0.92 Daily=cc38_Util Model=3 status=variable vminpu=0.93 vmaxpu=1.1 

New Load.IP_11686_MOD2 bus=BT_75972_1.2 phases=1 conn=Wye kv=0.22 kw=0.043 pf=0.92 Daily=cc38_Util Model=2 status=variable vminpu=0.93 vmaxpu=1.1 
New Load.IP_11686_MOD3 bus=BT_75972_1.2 phases=1 conn=Wye kv=0.22 kw=0.043 pf=0.92 Daily=cc38_Util Model=3 status=variable vminpu=0.93 vmaxpu=1.1 

New Load.IP_11783_MOD2 bus=BT_32870_1.2 phases=1 conn=Wye kv=0.22 kw=0.043 pf=0.92 Daily=cc38_Util Model=2 status=variable vminpu=0.93 vmaxpu=1.1 
New Load.IP_11783_MOD3 bus=BT_32870_1.2 phases=1 conn=Wye kv=0.22 kw=0.043 pf=0.92 Daily=cc38_Util Model=3 status=variable vminpu=0.93 vmaxpu=1.1 

New Load.IP_11792_MOD2 bus=BT_104932_1.3 phases=1 conn=Wye kv=0.219 kw=0.043 pf=0.92 Daily=cc38_Util Model=2 status=variable vminpu=0.93 vmaxpu=1.1 
New Load.IP_11792_MOD3 bus=BT_104932_1.3 phases=1 conn=Wye kv=0.219 kw=0.043 pf=0.92 Daily=cc38_Util Model=3 status=variable vminpu=0.93 vmaxpu=1.1 

New Load.IP_11793_MOD2 bus=BT_104933_1.2 phases=1 conn=Wye kv=0.219 kw=0.051 pf=0.92 Daily=cc38_Util Model=2 status=variable vminpu=0.93 vmaxpu=1.1 
New Load.IP_11793_MOD3 bus=BT_104933_1.2 phases=1 conn=Wye kv=0.219 kw=0.051 pf=0.92 Daily=cc38_Util Model=3 status=variable vminpu=0.93 vmaxpu=1.1 

New Load.IP_11961_MOD2 bus=BT_13282_1.1 phases=1 conn=Wye kv=0.22 kw=0.043 pf=0.92 Daily=cc38_Util Model=2 status=variable vminpu=0.93 vmaxpu=1.1 
New Load.IP_11961_MOD3 bus=BT_13282_1.1 phases=1 conn=Wye kv=0.22 kw=0.043 pf=0.92 Daily=cc38_Util Model=3 status=variable vminpu=0.93 vmaxpu=1.1 

New Load.IP_12057_MOD2 bus=BT_82232_1.1 phases=1 conn=Wye kv=0.22 kw=0.043 pf=0.92 Daily=cc38_Util Model=2 status=variable vminpu=0.93 vmaxpu=1.1 
New Load.IP_12057_MOD3 bus=BT_82232_1.1 phases=1 conn=Wye kv=0.22 kw=0.043 pf=0.92 Daily=cc38_Util Model=3 status=variable vminpu=0.93 vmaxpu=1.1 

New Load.IP_12075_MOD2 bus=BT_13668_1.3 phases=1 conn=Wye kv=0.219 kw=0.051 pf=0.92 Daily=cc38_Util Model=2 status=variable vminpu=0.93 vmaxpu=1.1 
New Load.IP_12075_MOD3 bus=BT_13668_1.3 phases=1 conn=Wye kv=0.219 kw=0.051 pf=0.92 Daily=cc38_Util Model=3 status=variable vminpu=0.93 vmaxpu=1.1 

New Load.IP_12078_MOD2 bus=BT_82228_1.2 phases=1 conn=Wye kv=0.22 kw=0.043 pf=0.92 Daily=cc38_Util Model=2 status=variable vminpu=0.93 vmaxpu=1.1 
New Load.IP_12078_MOD3 bus=BT_82228_1.2 phases=1 conn=Wye kv=0.22 kw=0.043 pf=0.92 Daily=cc38_Util Model=3 status=variable vminpu=0.93 vmaxpu=1.1 

New Load.IP_12100_MOD2 bus=BT_22599_1.3 phases=1 conn=Wye kv=0.219 kw=0.043 pf=0.92 Daily=cc38_Util Model=2 status=variable vminpu=0.93 vmaxpu=1.1 
New Load.IP_12100_MOD3 bus=BT_22599_1.3 phases=1 conn=Wye kv=0.219 kw=0.043 pf=0.92 Daily=cc38_Util Model=3 status=variable vminpu=0.93 vmaxpu=1.1 

New Load.IP_12101_MOD2 bus=BT_22599_1.3 phases=1 conn=Wye kv=0.219 kw=0.043 pf=0.92 Daily=cc38_Util Model=2 status=variable vminpu=0.93 vmaxpu=1.1 
New Load.IP_12101_MOD3 bus=BT_22599_1.3 phases=1 conn=Wye kv=0.219 kw=0.043 pf=0.92 Daily=cc38_Util Model=3 status=variable vminpu=0.93 vmaxpu=1.1 

New Load.IP_12102_MOD2 bus=BT_22601_1.3 phases=1 conn=Wye kv=0.219 kw=0.043 pf=0.92 Daily=cc38_Util Model=2 status=variable vminpu=0.93 vmaxpu=1.1 
New Load.IP_12102_MOD3 bus=BT_22601_1.3 phases=1 conn=Wye kv=0.219 kw=0.043 pf=0.92 Daily=cc38_Util Model=3 status=variable vminpu=0.93 vmaxpu=1.1 

New Load.IP_12103_MOD2 bus=BT_89753_1.1 phases=1 conn=Wye kv=0.219 kw=0.043 pf=0.92 Daily=cc38_Util Model=2 status=variable vminpu=0.93 vmaxpu=1.1 
New Load.IP_12103_MOD3 bus=BT_89753_1.1 phases=1 conn=Wye kv=0.219 kw=0.043 pf=0.92 Daily=cc38_Util Model=3 status=variable vminpu=0.93 vmaxpu=1.1 

New Load.IP_12104_MOD2 bus=BT_22601_1.3 phases=1 conn=Wye kv=0.219 kw=0.043 pf=0.92 Daily=cc38_Util Model=2 status=variable vminpu=0.93 vmaxpu=1.1 
New Load.IP_12104_MOD3 bus=BT_22601_1.3 phases=1 conn=Wye kv=0.219 kw=0.043 pf=0.92 Daily=cc38_Util Model=3 status=variable vminpu=0.93 vmaxpu=1.1 

New Load.IP_12105_MOD2 bus=BT_24567_1.1 phases=1 conn=Wye kv=0.219 kw=0.043 pf=0.92 Daily=cc38_Util Model=2 status=variable vminpu=0.93 vmaxpu=1.1 
New Load.IP_12105_MOD3 bus=BT_24567_1.1 phases=1 conn=Wye kv=0.219 kw=0.043 pf=0.92 Daily=cc38_Util Model=3 status=variable vminpu=0.93 vmaxpu=1.1 

New Load.IP_12107_MOD2 bus=BT_24567_1.1 phases=1 conn=Wye kv=0.219 kw=0.043 pf=0.92 Daily=cc38_Util Model=2 status=variable vminpu=0.93 vmaxpu=1.1 
New Load.IP_12107_MOD3 bus=BT_24567_1.1 phases=1 conn=Wye kv=0.219 kw=0.043 pf=0.92 Daily=cc38_Util Model=3 status=variable vminpu=0.93 vmaxpu=1.1 

New Load.IP_12162_MOD2 bus=BT_72144_1.1 phases=1 conn=Wye kv=0.219 kw=0.04 pf=0.92 Daily=cc38_Util Model=2 status=variable vminpu=0.93 vmaxpu=1.1 
New Load.IP_12162_MOD3 bus=BT_72144_1.1 phases=1 conn=Wye kv=0.219 kw=0.04 pf=0.92 Daily=cc38_Util Model=3 status=variable vminpu=0.93 vmaxpu=1.1 

New Load.IP_12169_MOD2 bus=BT_41879_1.1 phases=1 conn=Wye kv=0.22 kw=0.043 pf=0.92 Daily=cc38_Util Model=2 status=variable vminpu=0.93 vmaxpu=1.1 
New Load.IP_12169_MOD3 bus=BT_41879_1.1 phases=1 conn=Wye kv=0.22 kw=0.043 pf=0.92 Daily=cc38_Util Model=3 status=variable vminpu=0.93 vmaxpu=1.1 

New Load.IP_12170_MOD2 bus=BT_35633_1.1 phases=1 conn=Wye kv=0.219 kw=0.043 pf=0.92 Daily=cc38_Util Model=2 status=variable vminpu=0.93 vmaxpu=1.1 
New Load.IP_12170_MOD3 bus=BT_35633_1.1 phases=1 conn=Wye kv=0.219 kw=0.043 pf=0.92 Daily=cc38_Util Model=3 status=variable vminpu=0.93 vmaxpu=1.1 

New Load.IP_12171_MOD2 bus=BT_51215_1.1 phases=1 conn=Wye kv=0.219 kw=0.043 pf=0.92 Daily=cc38_Util Model=2 status=variable vminpu=0.93 vmaxpu=1.1 
New Load.IP_12171_MOD3 bus=BT_51215_1.1 phases=1 conn=Wye kv=0.219 kw=0.043 pf=0.92 Daily=cc38_Util Model=3 status=variable vminpu=0.93 vmaxpu=1.1 

New Load.IP_12172_MOD2 bus=BT_109938_1.3 phases=1 conn=Wye kv=0.219 kw=0.043 pf=0.92 Daily=cc38_Util Model=2 status=variable vminpu=0.93 vmaxpu=1.1 
New Load.IP_12172_MOD3 bus=BT_109938_1.3 phases=1 conn=Wye kv=0.219 kw=0.043 pf=0.92 Daily=cc38_Util Model=3 status=variable vminpu=0.93 vmaxpu=1.1 

New Load.IP_12173_MOD2 bus=BT_51211_1.1 phases=1 conn=Wye kv=0.219 kw=0.088 pf=0.92 Daily=cc38_Util Model=2 status=variable vminpu=0.93 vmaxpu=1.1 
New Load.IP_12173_MOD3 bus=BT_51211_1.1 phases=1 conn=Wye kv=0.219 kw=0.088 pf=0.92 Daily=cc38_Util Model=3 status=variable vminpu=0.93 vmaxpu=1.1 

New Load.IP_12174_MOD2 bus=BT_72916_1.2 phases=1 conn=Wye kv=0.219 kw=0.043 pf=0.92 Daily=cc38_Util Model=2 status=variable vminpu=0.93 vmaxpu=1.1 
New Load.IP_12174_MOD3 bus=BT_72916_1.2 phases=1 conn=Wye kv=0.219 kw=0.043 pf=0.92 Daily=cc38_Util Model=3 status=variable vminpu=0.93 vmaxpu=1.1 

New Load.IP_12186_MOD2 bus=BT_96202_1.2 phases=1 conn=Wye kv=0.22 kw=0.043 pf=0.92 Daily=cc38_Util Model=2 status=variable vminpu=0.93 vmaxpu=1.1 
New Load.IP_12186_MOD3 bus=BT_96202_1.2 phases=1 conn=Wye kv=0.22 kw=0.043 pf=0.92 Daily=cc38_Util Model=3 status=variable vminpu=0.93 vmaxpu=1.1 

New Load.IP_12337_MOD2 bus=BT_28152_1.2 phases=1 conn=Wye kv=0.22 kw=0.1375 pf=0.92 Daily=cc38_Util Model=2 status=variable vminpu=0.93 vmaxpu=1.1 
New Load.IP_12337_MOD3 bus=BT_28152_1.2 phases=1 conn=Wye kv=0.22 kw=0.1375 pf=0.92 Daily=cc38_Util Model=3 status=variable vminpu=0.93 vmaxpu=1.1 

New Load.IP_12338_MOD2 bus=BT_50341_1.2 phases=1 conn=Wye kv=0.22 kw=0.088 pf=0.92 Daily=cc38_Util Model=2 status=variable vminpu=0.93 vmaxpu=1.1 
New Load.IP_12338_MOD3 bus=BT_50341_1.2 phases=1 conn=Wye kv=0.22 kw=0.088 pf=0.92 Daily=cc38_Util Model=3 status=variable vminpu=0.93 vmaxpu=1.1 

New Load.IP_12356_MOD2 bus=BT_28122_1.2 phases=1 conn=Wye kv=0.22 kw=0.088 pf=0.92 Daily=cc38_Util Model=2 status=variable vminpu=0.93 vmaxpu=1.1 
New Load.IP_12356_MOD3 bus=BT_28122_1.2 phases=1 conn=Wye kv=0.22 kw=0.088 pf=0.92 Daily=cc38_Util Model=3 status=variable vminpu=0.93 vmaxpu=1.1 

New Load.IP_12366_MOD2 bus=BT_25955_1.2 phases=1 conn=Wye kv=0.22 kw=0.043 pf=0.92 Daily=cc38_Util Model=2 status=variable vminpu=0.93 vmaxpu=1.1 
New Load.IP_12366_MOD3 bus=BT_25955_1.2 phases=1 conn=Wye kv=0.22 kw=0.043 pf=0.92 Daily=cc38_Util Model=3 status=variable vminpu=0.93 vmaxpu=1.1 

New Load.IP_12369_MOD2 bus=BT_51208_1.2 phases=1 conn=Wye kv=0.219 kw=0.034 pf=0.92 Daily=cc38_Util Model=2 status=variable vminpu=0.93 vmaxpu=1.1 
New Load.IP_12369_MOD3 bus=BT_51208_1.2 phases=1 conn=Wye kv=0.219 kw=0.034 pf=0.92 Daily=cc38_Util Model=3 status=variable vminpu=0.93 vmaxpu=1.1 

New Load.IP_12370_MOD2 bus=BT_102510_1.2 phases=1 conn=Wye kv=0.22 kw=0.088 pf=0.92 Daily=cc38_Util Model=2 status=variable vminpu=0.93 vmaxpu=1.1 
New Load.IP_12370_MOD3 bus=BT_102510_1.2 phases=1 conn=Wye kv=0.22 kw=0.088 pf=0.92 Daily=cc38_Util Model=3 status=variable vminpu=0.93 vmaxpu=1.1 

New Load.IP_12371_MOD2 bus=BT_37642_1.2 phases=1 conn=Wye kv=0.22 kw=0.043 pf=0.92 Daily=cc38_Util Model=2 status=variable vminpu=0.93 vmaxpu=1.1 
New Load.IP_12371_MOD3 bus=BT_37642_1.2 phases=1 conn=Wye kv=0.22 kw=0.043 pf=0.92 Daily=cc38_Util Model=3 status=variable vminpu=0.93 vmaxpu=1.1 

New Load.IP_12372_MOD2 bus=BT_28168_1.2 phases=1 conn=Wye kv=0.22 kw=0.088 pf=0.92 Daily=cc38_Util Model=2 status=variable vminpu=0.93 vmaxpu=1.1 
New Load.IP_12372_MOD3 bus=BT_28168_1.2 phases=1 conn=Wye kv=0.22 kw=0.088 pf=0.92 Daily=cc38_Util Model=3 status=variable vminpu=0.93 vmaxpu=1.1 

New Load.IP_12373_MOD2 bus=BT_25921_1.1 phases=1 conn=Wye kv=0.22 kw=0.043 pf=0.92 Daily=cc38_Util Model=2 status=variable vminpu=0.93 vmaxpu=1.1 
New Load.IP_12373_MOD3 bus=BT_25921_1.1 phases=1 conn=Wye kv=0.22 kw=0.043 pf=0.92 Daily=cc38_Util Model=3 status=variable vminpu=0.93 vmaxpu=1.1 

New Load.IP_12374_MOD2 bus=BT_25925_1.1 phases=1 conn=Wye kv=0.22 kw=0.1375 pf=0.92 Daily=cc38_Util Model=2 status=variable vminpu=0.93 vmaxpu=1.1 
New Load.IP_12374_MOD3 bus=BT_25925_1.1 phases=1 conn=Wye kv=0.22 kw=0.1375 pf=0.92 Daily=cc38_Util Model=3 status=variable vminpu=0.93 vmaxpu=1.1 

New Load.IP_12375_MOD2 bus=BT_23262_1.3 phases=1 conn=Wye kv=0.219 kw=0.088 pf=0.92 Daily=cc38_Util Model=2 status=variable vminpu=0.93 vmaxpu=1.1 
New Load.IP_12375_MOD3 bus=BT_23262_1.3 phases=1 conn=Wye kv=0.219 kw=0.088 pf=0.92 Daily=cc38_Util Model=3 status=variable vminpu=0.93 vmaxpu=1.1 

New Load.IP_12376_MOD2 bus=BT_23708_1.3 phases=1 conn=Wye kv=0.219 kw=0.088 pf=0.92 Daily=cc38_Util Model=2 status=variable vminpu=0.93 vmaxpu=1.1 
New Load.IP_12376_MOD3 bus=BT_23708_1.3 phases=1 conn=Wye kv=0.219 kw=0.088 pf=0.92 Daily=cc38_Util Model=3 status=variable vminpu=0.93 vmaxpu=1.1 

New Load.IP_12377_MOD2 bus=BT_23657_1.2 phases=1 conn=Wye kv=0.22 kw=0.043 pf=0.92 Daily=cc38_Util Model=2 status=variable vminpu=0.93 vmaxpu=1.1 
New Load.IP_12377_MOD3 bus=BT_23657_1.2 phases=1 conn=Wye kv=0.22 kw=0.043 pf=0.92 Daily=cc38_Util Model=3 status=variable vminpu=0.93 vmaxpu=1.1 

New Load.IP_12379_MOD2 bus=BT_23656_1.2 phases=1 conn=Wye kv=0.22 kw=0.043 pf=0.92 Daily=cc38_Util Model=2 status=variable vminpu=0.93 vmaxpu=1.1 
New Load.IP_12379_MOD3 bus=BT_23656_1.2 phases=1 conn=Wye kv=0.22 kw=0.043 pf=0.92 Daily=cc38_Util Model=3 status=variable vminpu=0.93 vmaxpu=1.1 

New Load.IP_12380_MOD2 bus=BT_23655_1.2 phases=1 conn=Wye kv=0.22 kw=0.043 pf=0.92 Daily=cc38_Util Model=2 status=variable vminpu=0.93 vmaxpu=1.1 
New Load.IP_12380_MOD3 bus=BT_23655_1.2 phases=1 conn=Wye kv=0.22 kw=0.043 pf=0.92 Daily=cc38_Util Model=3 status=variable vminpu=0.93 vmaxpu=1.1 

New Load.IP_12381_MOD2 bus=BT_23654_1.2 phases=1 conn=Wye kv=0.22 kw=0.043 pf=0.92 Daily=cc38_Util Model=2 status=variable vminpu=0.93 vmaxpu=1.1 
New Load.IP_12381_MOD3 bus=BT_23654_1.2 phases=1 conn=Wye kv=0.22 kw=0.043 pf=0.92 Daily=cc38_Util Model=3 status=variable vminpu=0.93 vmaxpu=1.1 

New Load.IP_12382_MOD2 bus=BT_23649_1.2 phases=1 conn=Wye kv=0.22 kw=0.043 pf=0.92 Daily=cc38_Util Model=2 status=variable vminpu=0.93 vmaxpu=1.1 
New Load.IP_12382_MOD3 bus=BT_23649_1.2 phases=1 conn=Wye kv=0.22 kw=0.043 pf=0.92 Daily=cc38_Util Model=3 status=variable vminpu=0.93 vmaxpu=1.1 

New Load.IP_12383_MOD2 bus=BT_24070_1.2 phases=1 conn=Wye kv=0.22 kw=0.043 pf=0.92 Daily=cc38_Util Model=2 status=variable vminpu=0.93 vmaxpu=1.1 
New Load.IP_12383_MOD3 bus=BT_24070_1.2 phases=1 conn=Wye kv=0.22 kw=0.043 pf=0.92 Daily=cc38_Util Model=3 status=variable vminpu=0.93 vmaxpu=1.1 

New Load.IP_12384_MOD2 bus=BT_24082_1.2 phases=1 conn=Wye kv=0.22 kw=0.043 pf=0.92 Daily=cc38_Util Model=2 status=variable vminpu=0.93 vmaxpu=1.1 
New Load.IP_12384_MOD3 bus=BT_24082_1.2 phases=1 conn=Wye kv=0.22 kw=0.043 pf=0.92 Daily=cc38_Util Model=3 status=variable vminpu=0.93 vmaxpu=1.1 

New Load.IP_12385_MOD2 bus=BT_24068_1.2 phases=1 conn=Wye kv=0.22 kw=0.043 pf=0.92 Daily=cc38_Util Model=2 status=variable vminpu=0.93 vmaxpu=1.1 
New Load.IP_12385_MOD3 bus=BT_24068_1.2 phases=1 conn=Wye kv=0.22 kw=0.043 pf=0.92 Daily=cc38_Util Model=3 status=variable vminpu=0.93 vmaxpu=1.1 

New Load.IP_12386_MOD2 bus=BT_89332_1.1 phases=1 conn=Wye kv=0.22 kw=0.043 pf=0.92 Daily=cc38_Util Model=2 status=variable vminpu=0.93 vmaxpu=1.1 
New Load.IP_12386_MOD3 bus=BT_89332_1.1 phases=1 conn=Wye kv=0.22 kw=0.043 pf=0.92 Daily=cc38_Util Model=3 status=variable vminpu=0.93 vmaxpu=1.1 

New Load.IP_12388_MOD2 bus=BT_25529_1.2 phases=1 conn=Wye kv=0.22 kw=0.043 pf=0.92 Daily=cc38_Util Model=2 status=variable vminpu=0.93 vmaxpu=1.1 
New Load.IP_12388_MOD3 bus=BT_25529_1.2 phases=1 conn=Wye kv=0.22 kw=0.043 pf=0.92 Daily=cc38_Util Model=3 status=variable vminpu=0.93 vmaxpu=1.1 

New Load.IP_12389_MOD2 bus=BT_45754_1.2 phases=1 conn=Wye kv=0.22 kw=0.043 pf=0.92 Daily=cc38_Util Model=2 status=variable vminpu=0.93 vmaxpu=1.1 
New Load.IP_12389_MOD3 bus=BT_45754_1.2 phases=1 conn=Wye kv=0.22 kw=0.043 pf=0.92 Daily=cc38_Util Model=3 status=variable vminpu=0.93 vmaxpu=1.1 

New Load.IP_12390_MOD2 bus=BT_24043_1.2 phases=1 conn=Wye kv=0.22 kw=0.043 pf=0.92 Daily=cc38_Util Model=2 status=variable vminpu=0.93 vmaxpu=1.1 
New Load.IP_12390_MOD3 bus=BT_24043_1.2 phases=1 conn=Wye kv=0.22 kw=0.043 pf=0.92 Daily=cc38_Util Model=3 status=variable vminpu=0.93 vmaxpu=1.1 

New Load.IP_12391_MOD2 bus=BT_24039_1.2 phases=1 conn=Wye kv=0.22 kw=0.043 pf=0.92 Daily=cc38_Util Model=2 status=variable vminpu=0.93 vmaxpu=1.1 
New Load.IP_12391_MOD3 bus=BT_24039_1.2 phases=1 conn=Wye kv=0.22 kw=0.043 pf=0.92 Daily=cc38_Util Model=3 status=variable vminpu=0.93 vmaxpu=1.1 

New Load.IP_12392_MOD2 bus=BT_44210_1.2 phases=1 conn=Wye kv=0.22 kw=0.043 pf=0.92 Daily=cc38_Util Model=2 status=variable vminpu=0.93 vmaxpu=1.1 
New Load.IP_12392_MOD3 bus=BT_44210_1.2 phases=1 conn=Wye kv=0.22 kw=0.043 pf=0.92 Daily=cc38_Util Model=3 status=variable vminpu=0.93 vmaxpu=1.1 

New Load.IP_12394_MOD2 bus=BT_24046_1.2 phases=1 conn=Wye kv=0.219 kw=0.043 pf=0.92 Daily=cc38_Util Model=2 status=variable vminpu=0.93 vmaxpu=1.1 
New Load.IP_12394_MOD3 bus=BT_24046_1.2 phases=1 conn=Wye kv=0.219 kw=0.043 pf=0.92 Daily=cc38_Util Model=3 status=variable vminpu=0.93 vmaxpu=1.1 

New Load.IP_12395_MOD2 bus=BT_24028_1.2 phases=1 conn=Wye kv=0.22 kw=0.043 pf=0.92 Daily=cc38_Util Model=2 status=variable vminpu=0.93 vmaxpu=1.1 
New Load.IP_12395_MOD3 bus=BT_24028_1.2 phases=1 conn=Wye kv=0.22 kw=0.043 pf=0.92 Daily=cc38_Util Model=3 status=variable vminpu=0.93 vmaxpu=1.1 

New Load.IP_12398_MOD2 bus=BT_24064_1.2 phases=1 conn=Wye kv=0.22 kw=0.043 pf=0.92 Daily=cc38_Util Model=2 status=variable vminpu=0.93 vmaxpu=1.1 
New Load.IP_12398_MOD3 bus=BT_24064_1.2 phases=1 conn=Wye kv=0.22 kw=0.043 pf=0.92 Daily=cc38_Util Model=3 status=variable vminpu=0.93 vmaxpu=1.1 

New Load.IP_12399_MOD2 bus=BT_36397_1.2 phases=1 conn=Wye kv=0.22 kw=0.043 pf=0.92 Daily=cc38_Util Model=2 status=variable vminpu=0.93 vmaxpu=1.1 
New Load.IP_12399_MOD3 bus=BT_36397_1.2 phases=1 conn=Wye kv=0.22 kw=0.043 pf=0.92 Daily=cc38_Util Model=3 status=variable vminpu=0.93 vmaxpu=1.1 

New Load.IP_12400_MOD2 bus=BT_24090_1.2 phases=1 conn=Wye kv=0.219 kw=0.043 pf=0.92 Daily=cc38_Util Model=2 status=variable vminpu=0.93 vmaxpu=1.1 
New Load.IP_12400_MOD3 bus=BT_24090_1.2 phases=1 conn=Wye kv=0.219 kw=0.043 pf=0.92 Daily=cc38_Util Model=3 status=variable vminpu=0.93 vmaxpu=1.1 

New Load.IP_12401_MOD2 bus=BT_76903_1.1 phases=1 conn=Wye kv=0.22 kw=0.043 pf=0.92 Daily=cc38_Util Model=2 status=variable vminpu=0.93 vmaxpu=1.1 
New Load.IP_12401_MOD3 bus=BT_76903_1.1 phases=1 conn=Wye kv=0.22 kw=0.043 pf=0.92 Daily=cc38_Util Model=3 status=variable vminpu=0.93 vmaxpu=1.1 

New Load.IP_12402_MOD2 bus=BT_24076_1.2 phases=1 conn=Wye kv=0.22 kw=0.043 pf=0.92 Daily=cc38_Util Model=2 status=variable vminpu=0.93 vmaxpu=1.1 
New Load.IP_12402_MOD3 bus=BT_24076_1.2 phases=1 conn=Wye kv=0.22 kw=0.043 pf=0.92 Daily=cc38_Util Model=3 status=variable vminpu=0.93 vmaxpu=1.1 

New Load.IP_12455_MOD2 bus=BT_72142_1.1 phases=1 conn=Wye kv=0.22 kw=0.043 pf=0.92 Daily=cc38_Util Model=2 status=variable vminpu=0.93 vmaxpu=1.1 
New Load.IP_12455_MOD3 bus=BT_72142_1.1 phases=1 conn=Wye kv=0.22 kw=0.043 pf=0.92 Daily=cc38_Util Model=3 status=variable vminpu=0.93 vmaxpu=1.1 

New Load.IP_12456_MOD2 bus=BT_72140_1.2 phases=1 conn=Wye kv=0.219 kw=0.043 pf=0.92 Daily=cc38_Util Model=2 status=variable vminpu=0.93 vmaxpu=1.1 
New Load.IP_12456_MOD3 bus=BT_72140_1.2 phases=1 conn=Wye kv=0.219 kw=0.043 pf=0.92 Daily=cc38_Util Model=3 status=variable vminpu=0.93 vmaxpu=1.1 

New Load.IP_12469_MOD2 bus=BT_102758_1.1 phases=1 conn=Wye kv=0.219 kw=0.043 pf=0.92 Daily=cc38_Util Model=2 status=variable vminpu=0.93 vmaxpu=1.1 
New Load.IP_12469_MOD3 bus=BT_102758_1.1 phases=1 conn=Wye kv=0.219 kw=0.043 pf=0.92 Daily=cc38_Util Model=3 status=variable vminpu=0.93 vmaxpu=1.1 

New Load.IP_12470_MOD2 bus=BT_76900_1.2 phases=1 conn=Wye kv=0.22 kw=0.043 pf=0.92 Daily=cc38_Util Model=2 status=variable vminpu=0.93 vmaxpu=1.1 
New Load.IP_12470_MOD3 bus=BT_76900_1.2 phases=1 conn=Wye kv=0.22 kw=0.043 pf=0.92 Daily=cc38_Util Model=3 status=variable vminpu=0.93 vmaxpu=1.1 

New Load.IP_12471_MOD2 bus=BT_24025_1.2 phases=1 conn=Wye kv=0.22 kw=0.043 pf=0.92 Daily=cc38_Util Model=2 status=variable vminpu=0.93 vmaxpu=1.1 
New Load.IP_12471_MOD3 bus=BT_24025_1.2 phases=1 conn=Wye kv=0.22 kw=0.043 pf=0.92 Daily=cc38_Util Model=3 status=variable vminpu=0.93 vmaxpu=1.1 

New Load.IP_12472_MOD2 bus=BT_90829_1.2 phases=1 conn=Wye kv=0.22 kw=0.043 pf=0.92 Daily=cc38_Util Model=2 status=variable vminpu=0.93 vmaxpu=1.1 
New Load.IP_12472_MOD3 bus=BT_90829_1.2 phases=1 conn=Wye kv=0.22 kw=0.043 pf=0.92 Daily=cc38_Util Model=3 status=variable vminpu=0.93 vmaxpu=1.1 

New Load.IP_12473_MOD2 bus=BT_23639_1.2 phases=1 conn=Wye kv=0.22 kw=0.043 pf=0.92 Daily=cc38_Util Model=2 status=variable vminpu=0.93 vmaxpu=1.1 
New Load.IP_12473_MOD3 bus=BT_23639_1.2 phases=1 conn=Wye kv=0.22 kw=0.043 pf=0.92 Daily=cc38_Util Model=3 status=variable vminpu=0.93 vmaxpu=1.1 

New Load.IP_12474_MOD2 bus=BT_23642_1.2 phases=1 conn=Wye kv=0.22 kw=0.043 pf=0.92 Daily=cc38_Util Model=2 status=variable vminpu=0.93 vmaxpu=1.1 
New Load.IP_12474_MOD3 bus=BT_23642_1.2 phases=1 conn=Wye kv=0.22 kw=0.043 pf=0.92 Daily=cc38_Util Model=3 status=variable vminpu=0.93 vmaxpu=1.1 

New Load.IP_12475_MOD2 bus=BT_45431_1.3 phases=1 conn=Wye kv=0.219 kw=0.088 pf=0.92 Daily=cc38_Util Model=2 status=variable vminpu=0.93 vmaxpu=1.1 
New Load.IP_12475_MOD3 bus=BT_45431_1.3 phases=1 conn=Wye kv=0.219 kw=0.088 pf=0.92 Daily=cc38_Util Model=3 status=variable vminpu=0.93 vmaxpu=1.1 

New Load.IP_12476_MOD2 bus=BT_23258_1.3 phases=1 conn=Wye kv=0.219 kw=0.043 pf=0.92 Daily=cc38_Util Model=2 status=variable vminpu=0.93 vmaxpu=1.1 
New Load.IP_12476_MOD3 bus=BT_23258_1.3 phases=1 conn=Wye kv=0.219 kw=0.043 pf=0.92 Daily=cc38_Util Model=3 status=variable vminpu=0.93 vmaxpu=1.1 

New Load.IP_12478_MOD2 bus=BT_45439_1.3 phases=1 conn=Wye kv=0.219 kw=0.088 pf=0.92 Daily=cc38_Util Model=2 status=variable vminpu=0.93 vmaxpu=1.1 
New Load.IP_12478_MOD3 bus=BT_45439_1.3 phases=1 conn=Wye kv=0.219 kw=0.088 pf=0.92 Daily=cc38_Util Model=3 status=variable vminpu=0.93 vmaxpu=1.1 

New Load.IP_12479_MOD2 bus=BT_25160_1.1 phases=1 conn=Wye kv=0.219 kw=0.088 pf=0.92 Daily=cc38_Util Model=2 status=variable vminpu=0.93 vmaxpu=1.1 
New Load.IP_12479_MOD3 bus=BT_25160_1.1 phases=1 conn=Wye kv=0.219 kw=0.088 pf=0.92 Daily=cc38_Util Model=3 status=variable vminpu=0.93 vmaxpu=1.1 

New Load.IP_12480_MOD2 bus=BT_25154_1.3 phases=1 conn=Wye kv=0.219 kw=0.088 pf=0.92 Daily=cc38_Util Model=2 status=variable vminpu=0.93 vmaxpu=1.1 
New Load.IP_12480_MOD3 bus=BT_25154_1.3 phases=1 conn=Wye kv=0.219 kw=0.088 pf=0.92 Daily=cc38_Util Model=3 status=variable vminpu=0.93 vmaxpu=1.1 

New Load.IP_12481_MOD2 bus=BT_23288_1.3 phases=1 conn=Wye kv=0.219 kw=0.088 pf=0.92 Daily=cc38_Util Model=2 status=variable vminpu=0.93 vmaxpu=1.1 
New Load.IP_12481_MOD3 bus=BT_23288_1.3 phases=1 conn=Wye kv=0.219 kw=0.088 pf=0.92 Daily=cc38_Util Model=3 status=variable vminpu=0.93 vmaxpu=1.1 

New Load.IP_12533_MOD2 bus=BT_23287_1.3 phases=1 conn=Wye kv=0.219 kw=0.043 pf=0.92 Daily=cc38_Util Model=2 status=variable vminpu=0.93 vmaxpu=1.1 
New Load.IP_12533_MOD3 bus=BT_23287_1.3 phases=1 conn=Wye kv=0.219 kw=0.043 pf=0.92 Daily=cc38_Util Model=3 status=variable vminpu=0.93 vmaxpu=1.1 

New Load.IP_12554_MOD2 bus=BT_22012_1.2 phases=1 conn=Wye kv=0.22 kw=0.043 pf=0.92 Daily=cc38_Util Model=2 status=variable vminpu=0.93 vmaxpu=1.1 
New Load.IP_12554_MOD3 bus=BT_22012_1.2 phases=1 conn=Wye kv=0.22 kw=0.043 pf=0.92 Daily=cc38_Util Model=3 status=variable vminpu=0.93 vmaxpu=1.1 

New Load.IP_12555_MOD2 bus=BT_27834_1.2 phases=1 conn=Wye kv=0.22 kw=0.043 pf=0.92 Daily=cc38_Util Model=2 status=variable vminpu=0.93 vmaxpu=1.1 
New Load.IP_12555_MOD3 bus=BT_27834_1.2 phases=1 conn=Wye kv=0.22 kw=0.043 pf=0.92 Daily=cc38_Util Model=3 status=variable vminpu=0.93 vmaxpu=1.1 

New Load.IP_12558_MOD2 bus=BT_92595_1.2 phases=1 conn=Wye kv=0.22 kw=0.043 pf=0.92 Daily=cc38_Util Model=2 status=variable vminpu=0.93 vmaxpu=1.1 
New Load.IP_12558_MOD3 bus=BT_92595_1.2 phases=1 conn=Wye kv=0.22 kw=0.043 pf=0.92 Daily=cc38_Util Model=3 status=variable vminpu=0.93 vmaxpu=1.1 

New Load.IP_12559_MOD2 bus=BT_99090_1.2 phases=1 conn=Wye kv=0.22 kw=0.043 pf=0.92 Daily=cc38_Util Model=2 status=variable vminpu=0.93 vmaxpu=1.1 
New Load.IP_12559_MOD3 bus=BT_99090_1.2 phases=1 conn=Wye kv=0.22 kw=0.043 pf=0.92 Daily=cc38_Util Model=3 status=variable vminpu=0.93 vmaxpu=1.1 

New Load.IP_12560_MOD2 bus=BT_95428_1.3 phases=1 conn=Wye kv=0.219 kw=0.088 pf=0.92 Daily=cc38_Util Model=2 status=variable vminpu=0.93 vmaxpu=1.1 
New Load.IP_12560_MOD3 bus=BT_95428_1.3 phases=1 conn=Wye kv=0.219 kw=0.088 pf=0.92 Daily=cc38_Util Model=3 status=variable vminpu=0.93 vmaxpu=1.1 

New Load.IP_12562_MOD2 bus=BT_24544_1.1 phases=1 conn=Wye kv=0.22 kw=0.043 pf=0.92 Daily=cc38_Util Model=2 status=variable vminpu=0.93 vmaxpu=1.1 
New Load.IP_12562_MOD3 bus=BT_24544_1.1 phases=1 conn=Wye kv=0.22 kw=0.043 pf=0.92 Daily=cc38_Util Model=3 status=variable vminpu=0.93 vmaxpu=1.1 

New Load.IP_12564_MOD2 bus=BT_26355_1.3 phases=1 conn=Wye kv=0.219 kw=0.088 pf=0.92 Daily=cc38_Util Model=2 status=variable vminpu=0.93 vmaxpu=1.1 
New Load.IP_12564_MOD3 bus=BT_26355_1.3 phases=1 conn=Wye kv=0.219 kw=0.088 pf=0.92 Daily=cc38_Util Model=3 status=variable vminpu=0.93 vmaxpu=1.1 

New Load.IP_12568_MOD2 bus=BT_26356_1.3 phases=1 conn=Wye kv=0.219 kw=0.088 pf=0.92 Daily=cc38_Util Model=2 status=variable vminpu=0.93 vmaxpu=1.1 
New Load.IP_12568_MOD3 bus=BT_26356_1.3 phases=1 conn=Wye kv=0.219 kw=0.088 pf=0.92 Daily=cc38_Util Model=3 status=variable vminpu=0.93 vmaxpu=1.1 

New Load.IP_12583_MOD2 bus=BT_30676_1.2 phases=1 conn=Wye kv=0.219 kw=0.043 pf=0.92 Daily=cc38_Util Model=2 status=variable vminpu=0.93 vmaxpu=1.1 
New Load.IP_12583_MOD3 bus=BT_30676_1.2 phases=1 conn=Wye kv=0.219 kw=0.043 pf=0.92 Daily=cc38_Util Model=3 status=variable vminpu=0.93 vmaxpu=1.1 

New Load.IP_12584_MOD2 bus=BT_30673_1.2 phases=1 conn=Wye kv=0.22 kw=0.043 pf=0.92 Daily=cc38_Util Model=2 status=variable vminpu=0.93 vmaxpu=1.1 
New Load.IP_12584_MOD3 bus=BT_30673_1.2 phases=1 conn=Wye kv=0.22 kw=0.043 pf=0.92 Daily=cc38_Util Model=3 status=variable vminpu=0.93 vmaxpu=1.1 
