New Transformer.IT54_10069 phases=3 Windings=2 Xhl=0.5 %loadLoss =1.81 %noloadLoss =0.47
 ~ wdg=1 bus=141796_1 conn= Delta kv=13.8 kva=30 tap=0.957
 ~ wdg=2 bus=BT_54_10069 conn= Wye kv=0.38 kva=30 tap=1

New Transformer.IT54_10096 phases=3 Windings=2 Xhl=0.5 %loadLoss =1.81 %noloadLoss =0.47
 ~ wdg=1 bus=143359_1 conn= Delta kv=13.8 kva=30 tap=0.913
 ~ wdg=2 bus=BT_54_10096 conn= Wye kv=0.38 kva=30 tap=1

New Transformer.IT54_10098 phases=3 Windings=2 Xhl=0.5 %loadLoss =1.65 %noloadLoss =0.41
 ~ wdg=1 bus=135962_1 conn= Delta kv=13.8 kva=45 tap=0.957
 ~ wdg=2 bus=BT_54_10098 conn= Wye kv=0.38 kva=45 tap=1

New Transformer.IT54_10170 phases=1 Windings=3 Xhl=0.5 %loadLoss =0.5 %noloadLoss =0.2
 ~ wdg=1 bus=24051_1.3 conn= Wye kv=7.97 kva=25 tap=0.956
 ~ wdg=2 bus=BT_54_10170.1.0  conn= Wye kv=0.22 kva=25 tap=1
 ~ wdg=3 bus=BT_54_10170.0.2  conn= Wye kv=0.22 kva=25 tap=1

New Transformer.IT54_10173 phases=3 Windings=2 Xhl=0.5 %loadLoss =1.46 %noloadLoss =0.37
 ~ wdg=1 bus=142959_1 conn= Delta kv=13.8 kva=75 tap=1
 ~ wdg=2 bus=BT_54_10173 conn= Wye kv=0.38 kva=75 tap=1

New Transformer.IT54_1018 phases=1 Windings=3 Xhl=0.5 %loadLoss =0.5 %noloadLoss =0.2
 ~ wdg=1 bus=12670_1.1 conn= Wye kv=7.97 kva=7.5 tap=0.783
 ~ wdg=2 bus=BT_54_1018.1.0  conn= Wye kv=0.22 kva=7.5 tap=1
 ~ wdg=3 bus=BT_54_1018.0.2  conn= Wye kv=0.22 kva=7.5 tap=1

New Transformer.IT54_10190 phases=3 Windings=2 Xhl=0.5 %loadLoss =1.46 %noloadLoss =0.37
 ~ wdg=1 bus=142960_1 conn= Delta kv=13.8 kva=75 tap=1
 ~ wdg=2 bus=BT_54_10190 conn= Wye kv=0.38 kva=75 tap=1

New Transformer.IT54_10369 phases=1 Windings=3 Xhl=0.5 %loadLoss =0.5 %noloadLoss =0.2
 ~ wdg=1 bus=144427_1.2 conn= Wye kv=7.97 kva=15 tap=1
 ~ wdg=2 bus=BT_54_10369.1.0  conn= Wye kv=0.22 kva=15 tap=1
 ~ wdg=3 bus=BT_54_10369.0.2  conn= Wye kv=0.22 kva=15 tap=1

New Transformer.IT54_10370 phases=1 Windings=3 Xhl=0.5 %loadLoss =0.5 %noloadLoss =0.2
 ~ wdg=1 bus=144673_1.3 conn= Wye kv=7.97 kva=15 tap=1
 ~ wdg=2 bus=BT_54_10370.1.0  conn= Wye kv=0.22 kva=15 tap=1
 ~ wdg=3 bus=BT_54_10370.0.2  conn= Wye kv=0.22 kva=15 tap=1

New Transformer.IT54_10449 phases=1 Windings=3 Xhl=0.5 %loadLoss =0.5 %noloadLoss =0.2
 ~ wdg=1 bus=144998_1.1 conn= Wye kv=7.97 kva=10 tap=1
 ~ wdg=2 bus=BT_54_10449.1.0  conn= Wye kv=0.22 kva=10 tap=1
 ~ wdg=3 bus=BT_54_10449.0.2  conn= Wye kv=0.22 kva=10 tap=1

New Transformer.IT54_1069 phases=1 Windings=3 Xhl=0.5 %loadLoss =0.5 %noloadLoss =0.2
 ~ wdg=1 bus=25595_1.2 conn= Wye kv=7.97 kva=15 tap=0.956
 ~ wdg=2 bus=BT_54_1069.1.0  conn= Wye kv=0.22 kva=15 tap=1
 ~ wdg=3 bus=BT_54_1069.0.2  conn= Wye kv=0.22 kva=15 tap=1

New Transformer.IT54_1268 phases=1 Windings=3 Xhl=0.5 %loadLoss =0.5 %noloadLoss =0.2
 ~ wdg=1 bus=44218_1.2 conn= Wye kv=7.97 kva=15 tap=0.913
 ~ wdg=2 bus=BT_54_1268.1.0  conn= Wye kv=0.22 kva=15 tap=1
 ~ wdg=3 bus=BT_54_1268.0.2  conn= Wye kv=0.22 kva=15 tap=1

New Transformer.IT54_1269 phases=1 Windings=3 Xhl=0.5 %loadLoss =0.5 %noloadLoss =0.2
 ~ wdg=1 bus=113896_1.1 conn= Wye kv=7.97 kva=5 tap=0.783
 ~ wdg=2 bus=BT_54_1269.1.0  conn= Wye kv=0.22 kva=5 tap=1
 ~ wdg=3 bus=BT_54_1269.0.2  conn= Wye kv=0.22 kva=5 tap=1

New Transformer.IT54_1270 phases=1 Windings=3 Xhl=0.5 %loadLoss =0.5 %noloadLoss =0.2
 ~ wdg=1 bus=24041_1.2 conn= Wye kv=7.97 kva=15 tap=0.956
 ~ wdg=2 bus=BT_54_1270.1.0  conn= Wye kv=0.22 kva=15 tap=1
 ~ wdg=3 bus=BT_54_1270.0.2  conn= Wye kv=0.22 kva=15 tap=1

New Transformer.IT54_1271 phases=1 Windings=3 Xhl=0.5 %loadLoss =0.5 %noloadLoss =0.2
 ~ wdg=1 bus=118382_1.3 conn= Wye kv=7.97 kva=10 tap=0.956
 ~ wdg=2 bus=BT_54_1271.1.0  conn= Wye kv=0.22 kva=10 tap=1
 ~ wdg=3 bus=BT_54_1271.0.2  conn= Wye kv=0.22 kva=10 tap=1

New Transformer.IT54_1272 phases=1 Windings=3 Xhl=0.5 %loadLoss =0.5 %noloadLoss =0.2
 ~ wdg=1 bus=24028_1.1 conn= Wye kv=7.97 kva=15 tap=1
 ~ wdg=2 bus=BT_54_1272.1.0  conn= Wye kv=0.22 kva=15 tap=1
 ~ wdg=3 bus=BT_54_1272.0.2  conn= Wye kv=0.22 kva=15 tap=1

New Transformer.IT54_1273 phases=1 Windings=3 Xhl=0.5 %loadLoss =0.5 %noloadLoss =0.2
 ~ wdg=1 bus=24070_1.3 conn= Wye kv=7.97 kva=10 tap=0.956
 ~ wdg=2 bus=BT_54_1273.1.0  conn= Wye kv=0.22 kva=10 tap=1
 ~ wdg=3 bus=BT_54_1273.0.2  conn= Wye kv=0.22 kva=10 tap=1

New Transformer.IT54_1274 phases=1 Windings=3 Xhl=0.5 %loadLoss =0.5 %noloadLoss =0.2
 ~ wdg=1 bus=25920_1.3 conn= Wye kv=7.97 kva=25 tap=0.913
 ~ wdg=2 bus=BT_54_1274.1.0  conn= Wye kv=0.22 kva=25 tap=1
 ~ wdg=3 bus=BT_54_1274.0.2  conn= Wye kv=0.22 kva=25 tap=1

New Transformer.IT54_1283 phases=1 Windings=3 Xhl=0.5 %loadLoss =0.5 %noloadLoss =0.2
 ~ wdg=1 bus=31985_1.3 conn= Wye kv=7.97 kva=15 tap=1
 ~ wdg=2 bus=BT_54_1283.1.0  conn= Wye kv=0.22 kva=15 tap=1
 ~ wdg=3 bus=BT_54_1283.0.2  conn= Wye kv=0.22 kva=15 tap=1

New Transformer.IT54_1384 phases=1 Windings=3 Xhl=0.5 %loadLoss =0.5 %noloadLoss =0.2
 ~ wdg=1 bus=37640_1.1 conn= Wye kv=7.97 kva=10 tap=1
 ~ wdg=2 bus=BT_54_1384.1.0  conn= Wye kv=0.22 kva=10 tap=1
 ~ wdg=3 bus=BT_54_1384.0.2  conn= Wye kv=0.22 kva=10 tap=1

New Transformer.IT54_1501 phases=1 Windings=3 Xhl=0.5 %loadLoss =0.5 %noloadLoss =0.2
 ~ wdg=1 bus=25533_1.1 conn= Wye kv=7.97 kva=15 tap=0.913
 ~ wdg=2 bus=BT_54_1501.1.0  conn= Wye kv=0.22 kva=15 tap=1
 ~ wdg=3 bus=BT_54_1501.0.2  conn= Wye kv=0.22 kva=15 tap=1

New Transformer.IT54_1503 phases=1 Windings=3 Xhl=0.5 %loadLoss =0.5 %noloadLoss =0.2
 ~ wdg=1 bus=98792_1.2 conn= Wye kv=7.97 kva=25 tap=1
 ~ wdg=2 bus=BT_54_1503.1.0  conn= Wye kv=0.22 kva=25 tap=1
 ~ wdg=3 bus=BT_54_1503.0.2  conn= Wye kv=0.22 kva=25 tap=1

New Transformer.IT54_1504 phases=3 Windings=2 Xhl=0.5 %loadLoss =1.65 %noloadLoss =0.41
 ~ wdg=1 bus=23677_1 conn= Delta kv=13.8 kva=45 tap=0.957
 ~ wdg=2 bus=BT_54_1504 conn= Wye kv=0.38 kva=45 tap=1

New Transformer.IT54_1556 phases=1 Windings=3 Xhl=0.5 %loadLoss =0.5 %noloadLoss =0.2
 ~ wdg=1 bus=26300_1.2 conn= Wye kv=7.97 kva=15 tap=0.956
 ~ wdg=2 bus=BT_54_1556.1.0  conn= Wye kv=0.22 kva=15 tap=1
 ~ wdg=3 bus=BT_54_1556.0.2  conn= Wye kv=0.22 kva=15 tap=1

New Transformer.IT54_1557 phases=1 Windings=3 Xhl=0.5 %loadLoss =0.5 %noloadLoss =0.2
 ~ wdg=1 bus=34727_1.2 conn= Wye kv=7.97 kva=25 tap=0.956
 ~ wdg=2 bus=BT_54_1557.1.0  conn= Wye kv=0.22 kva=25 tap=1
 ~ wdg=3 bus=BT_54_1557.0.2  conn= Wye kv=0.22 kva=25 tap=1

New Transformer.IT54_1559 phases=1 Windings=3 Xhl=0.5 %loadLoss =0.5 %noloadLoss =0.2
 ~ wdg=1 bus=26314_1.2 conn= Wye kv=7.97 kva=25 tap=0.87
 ~ wdg=2 bus=BT_54_1559.1.0  conn= Wye kv=0.22 kva=25 tap=1
 ~ wdg=3 bus=BT_54_1559.0.2  conn= Wye kv=0.22 kva=25 tap=1

New Transformer.IT54_1560 phases=1 Windings=3 Xhl=0.5 %loadLoss =0.5 %noloadLoss =0.2
 ~ wdg=1 bus=44964_1.2 conn= Wye kv=7.97 kva=15 tap=0.956
 ~ wdg=2 bus=BT_54_1560.1.0  conn= Wye kv=0.22 kva=15 tap=1
 ~ wdg=3 bus=BT_54_1560.0.2  conn= Wye kv=0.22 kva=15 tap=1

New Transformer.IT54_1644 phases=1 Windings=3 Xhl=0.5 %loadLoss =0.5 %noloadLoss =0.2
 ~ wdg=1 bus=30671_1.3 conn= Wye kv=7.97 kva=10 tap=1
 ~ wdg=2 bus=BT_54_1644.1.0  conn= Wye kv=0.22 kva=10 tap=1
 ~ wdg=3 bus=BT_54_1644.0.2  conn= Wye kv=0.22 kva=10 tap=1

New Transformer.IT54_1655 phases=3 Windings=2 Xhl=0.5 %loadLoss =1.32 %noloadLoss =0.32
 ~ wdg=1 bus=27774_1 conn= Delta kv=13.8 kva=112.5 tap=0.957
 ~ wdg=2 bus=BT_54_1655 conn= Wye kv=0.38 kva=112.5 tap=1

New Transformer.IT54_1657 phases=3 Windings=2 Xhl=0.5 %loadLoss =1.46 %noloadLoss =0.37
 ~ wdg=1 bus=25171_1 conn= Delta kv=13.8 kva=75 tap=0.957
 ~ wdg=2 bus=BT_54_1657 conn= Wye kv=0.38 kva=75 tap=1

New Transformer.IT54_1729 phases=1 Windings=3 Xhl=0.5 %loadLoss =0.5 %noloadLoss =0.2
 ~ wdg=1 bus=25586_1.3 conn= Wye kv=7.97 kva=5 tap=0.87
 ~ wdg=2 bus=BT_54_1729.1.0  conn= Wye kv=0.22 kva=5 tap=1
 ~ wdg=3 bus=BT_54_1729.0.2  conn= Wye kv=0.22 kva=5 tap=1

New Transformer.IT54_1839 phases=1 Windings=3 Xhl=0.5 %loadLoss =0.5 %noloadLoss =0.2
 ~ wdg=1 bus=44222_1.3 conn= Wye kv=7.97 kva=10 tap=0.956
 ~ wdg=2 bus=BT_54_1839.1.0  conn= Wye kv=0.22 kva=10 tap=1
 ~ wdg=3 bus=BT_54_1839.0.2  conn= Wye kv=0.22 kva=10 tap=1

New Transformer.IT54_1878 phases=1 Windings=3 Xhl=0.5 %loadLoss =0.5 %noloadLoss =0.2
 ~ wdg=1 bus=110703_1.3 conn= Wye kv=7.97 kva=15 tap=0.956
 ~ wdg=2 bus=BT_54_1878.1.0  conn= Wye kv=0.22 kva=15 tap=1
 ~ wdg=3 bus=BT_54_1878.0.2  conn= Wye kv=0.22 kva=15 tap=1

New Transformer.IT54_1911 phases=3 Windings=2 Xhl=0.5 %loadLoss =1.46 %noloadLoss =0.37
 ~ wdg=1 bus=25567_1 conn= Delta kv=13.8 kva=75 tap=0.957
 ~ wdg=2 bus=BT_54_1911 conn= Wye kv=0.38 kva=75 tap=1

New Transformer.IT54_1994 phases=1 Windings=3 Xhl=0.5 %loadLoss =0.5 %noloadLoss =0.2
 ~ wdg=1 bus=20270_1.3 conn= Wye kv=7.97 kva=10 tap=0.956
 ~ wdg=2 bus=BT_54_1994.1.0  conn= Wye kv=0.22 kva=10 tap=1
 ~ wdg=3 bus=BT_54_1994.0.2  conn= Wye kv=0.22 kva=10 tap=1

New Transformer.IT54_2000 phases=1 Windings=3 Xhl=0.5 %loadLoss =0.5 %noloadLoss =0.2
 ~ wdg=1 bus=24021_1.2 conn= Wye kv=7.97 kva=15 tap=0.956
 ~ wdg=2 bus=BT_54_2000.1.0  conn= Wye kv=0.22 kva=15 tap=1
 ~ wdg=3 bus=BT_54_2000.0.2  conn= Wye kv=0.22 kva=15 tap=1

New Transformer.IT54_2001 phases=1 Windings=3 Xhl=0.5 %loadLoss =0.5 %noloadLoss =0.2
 ~ wdg=1 bus=23649_1.1 conn= Wye kv=7.97 kva=25 tap=0.913
 ~ wdg=2 bus=BT_54_2001.1.0  conn= Wye kv=0.22 kva=25 tap=1
 ~ wdg=3 bus=BT_54_2001.0.2  conn= Wye kv=0.22 kva=25 tap=1

New Transformer.IT54_2061 phases=1 Windings=3 Xhl=0.5 %loadLoss =0.5 %noloadLoss =0.2
 ~ wdg=1 bus=25543_1.1 conn= Wye kv=7.97 kva=5 tap=0.956
 ~ wdg=2 bus=BT_54_2061.1.0  conn= Wye kv=0.22 kva=5 tap=1
 ~ wdg=3 bus=BT_54_2061.0.2  conn= Wye kv=0.22 kva=5 tap=1

New Transformer.IT54_2067 phases=1 Windings=3 Xhl=0.5 %loadLoss =0.5 %noloadLoss =0.2
 ~ wdg=1 bus=124994_1.2 conn= Wye kv=7.97 kva=15 tap=0.956
 ~ wdg=2 bus=BT_54_2067.1.0  conn= Wye kv=0.22 kva=15 tap=1
 ~ wdg=3 bus=BT_54_2067.0.2  conn= Wye kv=0.22 kva=15 tap=1

New Transformer.IT54_2073 phases=1 Windings=3 Xhl=0.5 %loadLoss =0.5 %noloadLoss =0.2
 ~ wdg=1 bus=27746_1.3 conn= Wye kv=7.97 kva=5 tap=0.956
 ~ wdg=2 bus=BT_54_2073.1.0  conn= Wye kv=0.22 kva=5 tap=1
 ~ wdg=3 bus=BT_54_2073.0.2  conn= Wye kv=0.22 kva=5 tap=1

New Transformer.IT54_2078 phases=1 Windings=3 Xhl=0.5 %loadLoss =0.5 %noloadLoss =0.2
 ~ wdg=1 bus=27737_1.1 conn= Wye kv=7.97 kva=5 tap=0.956
 ~ wdg=2 bus=BT_54_2078.1.0  conn= Wye kv=0.22 kva=5 tap=1
 ~ wdg=3 bus=BT_54_2078.0.2  conn= Wye kv=0.22 kva=5 tap=1

New Transformer.IT54_2156 phases=1 Windings=3 Xhl=0.5 %loadLoss =0.5 %noloadLoss =0.2
 ~ wdg=1 bus=24016_1.2 conn= Wye kv=7.97 kva=7.5 tap=0.956
 ~ wdg=2 bus=BT_54_2156.1.0  conn= Wye kv=0.22 kva=7.5 tap=1
 ~ wdg=3 bus=BT_54_2156.0.2  conn= Wye kv=0.22 kva=7.5 tap=1

New Transformer.IT54_2348 phases=1 Windings=3 Xhl=0.5 %loadLoss =0.5 %noloadLoss =0.2
 ~ wdg=1 bus=23638_1.3 conn= Wye kv=7.97 kva=10 tap=0.956
 ~ wdg=2 bus=BT_54_2348.1.0  conn= Wye kv=0.22 kva=10 tap=1
 ~ wdg=3 bus=BT_54_2348.0.2  conn= Wye kv=0.22 kva=10 tap=1

New Transformer.IT54_2349 phases=1 Windings=3 Xhl=0.5 %loadLoss =0.5 %noloadLoss =0.2
 ~ wdg=1 bus=24077_1.3 conn= Wye kv=7.97 kva=15 tap=0.956
 ~ wdg=2 bus=BT_54_2349.1.0  conn= Wye kv=0.22 kva=15 tap=1
 ~ wdg=3 bus=BT_54_2349.0.2  conn= Wye kv=0.22 kva=15 tap=1

New Transformer.IT54_2352 phases=3 Windings=2 Xhl=0.5 %loadLoss =1.81 %noloadLoss =0.47
 ~ wdg=1 bus=25163_1 conn= Delta kv=13.8 kva=30 tap=0.957
 ~ wdg=2 bus=BT_54_2352 conn= Wye kv=0.38 kva=30 tap=1

New Transformer.IT54_2354 phases=1 Windings=3 Xhl=0.5 %loadLoss =0.5 %noloadLoss =0.2
 ~ wdg=1 bus=24025_1.3 conn= Wye kv=7.97 kva=25 tap=1
 ~ wdg=2 bus=BT_54_2354.1.0  conn= Wye kv=0.22 kva=25 tap=1
 ~ wdg=3 bus=BT_54_2354.0.2  conn= Wye kv=0.22 kva=25 tap=1

New Transformer.IT54_2374 phases=1 Windings=3 Xhl=0.5 %loadLoss =0.5 %noloadLoss =0.2
 ~ wdg=1 bus=25936_1.1 conn= Wye kv=7.97 kva=3 tap=0.956
 ~ wdg=2 bus=BT_54_2374.1.0  conn= Wye kv=0.22 kva=3 tap=1
 ~ wdg=3 bus=BT_54_2374.0.2  conn= Wye kv=0.22 kva=3 tap=1

New Transformer.IT54_2529 phases=1 Windings=3 Xhl=0.5 %loadLoss =0.5 %noloadLoss =0.2
 ~ wdg=1 bus=25547_1.1 conn= Wye kv=7.97 kva=10 tap=0.87
 ~ wdg=2 bus=BT_54_2529.1.0  conn= Wye kv=0.22 kva=10 tap=1
 ~ wdg=3 bus=BT_54_2529.0.2  conn= Wye kv=0.22 kva=10 tap=1

New Transformer.IT54_2604 phases=3 Windings=2 Xhl=0.5 %loadLoss =1.65 %noloadLoss =0.41
 ~ wdg=1 bus=118001_1 conn= Delta kv=13.8 kva=45 tap=1
 ~ wdg=2 bus=BT_54_2604 conn= Wye kv=0.38 kva=45 tap=1

New Transformer.IT54_2667 phases=1 Windings=3 Xhl=0.5 %loadLoss =0.5 %noloadLoss =0.2
 ~ wdg=1 bus=25891_1.3 conn= Wye kv=7.97 kva=25 tap=0.913
 ~ wdg=2 bus=BT_54_2667.1.0  conn= Wye kv=0.22 kva=25 tap=1
 ~ wdg=3 bus=BT_54_2667.0.2  conn= Wye kv=0.22 kva=25 tap=1

New Transformer.IT54_2716 phases=1 Windings=3 Xhl=0.5 %loadLoss =0.5 %noloadLoss =0.2
 ~ wdg=1 bus=110694_1.2 conn= Wye kv=7.97 kva=5 tap=0.87
 ~ wdg=2 bus=BT_54_2716.1.0  conn= Wye kv=0.22 kva=5 tap=1
 ~ wdg=3 bus=BT_54_2716.0.2  conn= Wye kv=0.22 kva=5 tap=1

New Transformer.IT54_2811 phases=1 Windings=3 Xhl=0.5 %loadLoss =0.5 %noloadLoss =0.2
 ~ wdg=1 bus=23656_1.3 conn= Wye kv=7.97 kva=15 tap=1
 ~ wdg=2 bus=BT_54_2811.1.0  conn= Wye kv=0.22 kva=15 tap=1
 ~ wdg=3 bus=BT_54_2811.0.2  conn= Wye kv=0.22 kva=15 tap=1

New Transformer.IT54_2828 phases=1 Windings=3 Xhl=0.5 %loadLoss =0.5 %noloadLoss =0.2
 ~ wdg=1 bus=31002_1.2 conn= Wye kv=7.97 kva=15 tap=0.87
 ~ wdg=2 bus=BT_54_2828.1.0  conn= Wye kv=0.22 kva=15 tap=1
 ~ wdg=3 bus=BT_54_2828.0.2  conn= Wye kv=0.22 kva=15 tap=1

New Transformer.IT54_2829 phases=1 Windings=3 Xhl=0.5 %loadLoss =0.5 %noloadLoss =0.2
 ~ wdg=1 bus=31008_1.2 conn= Wye kv=7.97 kva=15 tap=0.87
 ~ wdg=2 bus=BT_54_2829.1.0  conn= Wye kv=0.22 kva=15 tap=1
 ~ wdg=3 bus=BT_54_2829.0.2  conn= Wye kv=0.22 kva=15 tap=1

New Transformer.IT54_2940 phases=1 Windings=3 Xhl=0.5 %loadLoss =0.5 %noloadLoss =0.2
 ~ wdg=1 bus=41009_1.3 conn= Wye kv=7.97 kva=15 tap=0.87
 ~ wdg=2 bus=BT_54_2940.1.0  conn= Wye kv=0.22 kva=15 tap=1
 ~ wdg=3 bus=BT_54_2940.0.2  conn= Wye kv=0.22 kva=15 tap=1

New Transformer.IT54_3097 phases=3 Windings=2 Xhl=0.5 %loadLoss =1.81 %noloadLoss =0.47
 ~ wdg=1 bus=72141_1 conn= Delta kv=13.8 kva=30 tap=1
 ~ wdg=2 bus=BT_54_3097 conn= Wye kv=0.38 kva=30 tap=1

New Transformer.IT54_3182 phases=1 Windings=3 Xhl=0.5 %loadLoss =0.5 %noloadLoss =0.2
 ~ wdg=1 bus=26326_1.2 conn= Wye kv=7.97 kva=15 tap=1
 ~ wdg=2 bus=BT_54_3182.1.0  conn= Wye kv=0.22 kva=15 tap=1
 ~ wdg=3 bus=BT_54_3182.0.2  conn= Wye kv=0.22 kva=15 tap=1

New Transformer.IT54_3319 phases=1 Windings=3 Xhl=0.5 %loadLoss =0.5 %noloadLoss =0.2
 ~ wdg=1 bus=25955_1.3 conn= Wye kv=7.97 kva=10 tap=0.87
 ~ wdg=2 bus=BT_54_3319.1.0  conn= Wye kv=0.22 kva=10 tap=1
 ~ wdg=3 bus=BT_54_3319.0.2  conn= Wye kv=0.22 kva=10 tap=1

New Transformer.IT54_3391 phases=1 Windings=3 Xhl=0.5 %loadLoss =0.5 %noloadLoss =0.2
 ~ wdg=1 bus=47881_1.2 conn= Wye kv=7.97 kva=10 tap=0.956
 ~ wdg=2 bus=BT_54_3391.1.0  conn= Wye kv=0.22 kva=10 tap=1
 ~ wdg=3 bus=BT_54_3391.0.2  conn= Wye kv=0.22 kva=10 tap=1

New Transformer.IT54_3504 phases=3 Windings=2 Xhl=0.5 %loadLoss =1.65 %noloadLoss =0.41
 ~ wdg=1 bus=51223_2 conn= Delta kv=13.8 kva=45 tap=1
 ~ wdg=2 bus=BT_54_3504 conn= Wye kv=0.38 kva=45 tap=1

New Transformer.IT54_3602 phases=3 Windings=2 Xhl=0.5 %loadLoss =1.81 %noloadLoss =0.47
 ~ wdg=1 bus=45443_1 conn= Delta kv=13.8 kva=30 tap=0.87
 ~ wdg=2 bus=BT_54_3602 conn= Wye kv=0.38 kva=30 tap=1

New Transformer.IT54_3678 phases=1 Windings=3 Xhl=0.5 %loadLoss =0.5 %noloadLoss =0.2
 ~ wdg=1 bus=42938_1.3 conn= Wye kv=7.97 kva=10 tap=1
 ~ wdg=2 bus=BT_54_3678.1.0  conn= Wye kv=0.22 kva=10 tap=1
 ~ wdg=3 bus=BT_54_3678.0.2  conn= Wye kv=0.22 kva=10 tap=1

New Transformer.IT54_3874 phases=1 Windings=3 Xhl=0.5 %loadLoss =0.5 %noloadLoss =0.2
 ~ wdg=1 bus=31974_1.3 conn= Wye kv=7.97 kva=10 tap=1
 ~ wdg=2 bus=BT_54_3874.1.0  conn= Wye kv=0.22 kva=10 tap=1
 ~ wdg=3 bus=BT_54_3874.0.2  conn= Wye kv=0.22 kva=10 tap=1

New Transformer.IT54_3876 phases=1 Windings=3 Xhl=0.5 %loadLoss =0.5 %noloadLoss =0.2
 ~ wdg=1 bus=98802_1.2 conn= Wye kv=7.97 kva=10 tap=1
 ~ wdg=2 bus=BT_54_3876.1.0  conn= Wye kv=0.22 kva=10 tap=1
 ~ wdg=3 bus=BT_54_3876.0.2  conn= Wye kv=0.22 kva=10 tap=1

New Transformer.IT54_3877 phases=1 Windings=3 Xhl=0.5 %loadLoss =0.5 %noloadLoss =0.2
 ~ wdg=1 bus=120293_1.3 conn= Wye kv=7.97 kva=10 tap=1
 ~ wdg=2 bus=BT_54_3877.1.0  conn= Wye kv=0.22 kva=10 tap=1
 ~ wdg=3 bus=BT_54_3877.0.2  conn= Wye kv=0.22 kva=10 tap=1

New Transformer.IT54_3996 phases=1 Windings=3 Xhl=0.5 %loadLoss =0.5 %noloadLoss =0.2
 ~ wdg=1 bus=37803_1.1 conn= Wye kv=7.97 kva=5 tap=0.956
 ~ wdg=2 bus=BT_54_3996.1.0  conn= Wye kv=0.22 kva=5 tap=1
 ~ wdg=3 bus=BT_54_3996.0.2  conn= Wye kv=0.22 kva=5 tap=1

New Transformer.IT54_3997 phases=1 Windings=3 Xhl=0.5 %loadLoss =0.5 %noloadLoss =0.2
 ~ wdg=1 bus=94696_1.3 conn= Wye kv=7.97 kva=25 tap=0.956
 ~ wdg=2 bus=BT_54_3997.1.0  conn= Wye kv=0.22 kva=25 tap=1
 ~ wdg=3 bus=BT_54_3997.0.2  conn= Wye kv=0.22 kva=25 tap=1

New Transformer.IT54_4114 phases=1 Windings=3 Xhl=0.5 %loadLoss =0.5 %noloadLoss =0.2
 ~ wdg=1 bus=102509_1.3 conn= Wye kv=7.97 kva=5 tap=0.956
 ~ wdg=2 bus=BT_54_4114.1.0  conn= Wye kv=0.22 kva=5 tap=1
 ~ wdg=3 bus=BT_54_4114.0.2  conn= Wye kv=0.22 kva=5 tap=1

New Transformer.IT54_4161 phases=1 Windings=3 Xhl=0.5 %loadLoss =0.5 %noloadLoss =0.2
 ~ wdg=1 bus=45756_1.1 conn= Wye kv=7.97 kva=5 tap=0.913
 ~ wdg=2 bus=BT_54_4161.1.0  conn= Wye kv=0.22 kva=5 tap=1
 ~ wdg=3 bus=BT_54_4161.0.2  conn= Wye kv=0.22 kva=5 tap=1

New Transformer.IT54_4187 phases=1 Windings=3 Xhl=0.5 %loadLoss =0.5 %noloadLoss =0.2
 ~ wdg=1 bus=6798_1.3 conn= Wye kv=7.97 kva=5 tap=0.913
 ~ wdg=2 bus=BT_54_4187.1.0  conn= Wye kv=0.22 kva=5 tap=1
 ~ wdg=3 bus=BT_54_4187.0.2  conn= Wye kv=0.22 kva=5 tap=1

New Transformer.IT54_4242 phases=1 Windings=3 Xhl=0.5 %loadLoss =0.5 %noloadLoss =0.2
 ~ wdg=1 bus=58496_1.1 conn= Wye kv=7.97 kva=10 tap=0.956
 ~ wdg=2 bus=BT_54_4242.1.0  conn= Wye kv=0.22 kva=10 tap=1
 ~ wdg=3 bus=BT_54_4242.0.2  conn= Wye kv=0.22 kva=10 tap=1

New Transformer.IT54_4246 phases=3 Windings=2 Xhl=0.5 %loadLoss =1.46 %noloadLoss =0.37
 ~ wdg=1 bus=51208_1 conn= Delta kv=13.8 kva=75 tap=0.957
 ~ wdg=2 bus=BT_54_4246 conn= Wye kv=0.38 kva=75 tap=1

New Transformer.IT54_4248 phases=1 Windings=3 Xhl=0.5 %loadLoss =0.5 %noloadLoss =0.2
 ~ wdg=1 bus=96450_1.2 conn= Wye kv=7.97 kva=5 tap=0.956
 ~ wdg=2 bus=BT_54_4248.1.0  conn= Wye kv=0.22 kva=5 tap=1
 ~ wdg=3 bus=BT_54_4248.0.2  conn= Wye kv=0.22 kva=5 tap=1

New Transformer.IT54_4308 phases=3 Windings=2 Xhl=0.5 %loadLoss =1.65 %noloadLoss =0.41
 ~ wdg=1 bus=67050_1 conn= Delta kv=13.8 kva=45 tap=0.957
 ~ wdg=2 bus=BT_54_4308 conn= Wye kv=0.38 kva=45 tap=1

New Transformer.IT54_4395 phases=3 Windings=2 Xhl=0.5 %loadLoss =1.46 %noloadLoss =0.37
 ~ wdg=1 bus=127075_1 conn= Delta kv=13.8 kva=75 tap=0.957
 ~ wdg=2 bus=BT_54_4395 conn= Wye kv=0.38 kva=75 tap=1

New Transformer.IT54_4396 phases=1 Windings=3 Xhl=0.5 %loadLoss =0.5 %noloadLoss =0.2
 ~ wdg=1 bus=78963_1.3 conn= Wye kv=7.97 kva=15 tap=0.956
 ~ wdg=2 bus=BT_54_4396.1.0  conn= Wye kv=0.22 kva=15 tap=1
 ~ wdg=3 bus=BT_54_4396.0.2  conn= Wye kv=0.22 kva=15 tap=1

New Transformer.IT54_4492 phases=1 Windings=3 Xhl=0.5 %loadLoss =0.5 %noloadLoss =0.2
 ~ wdg=1 bus=25937_1.3 conn= Wye kv=7.97 kva=15 tap=0.956
 ~ wdg=2 bus=BT_54_4492.1.0  conn= Wye kv=0.22 kva=15 tap=1
 ~ wdg=3 bus=BT_54_4492.0.2  conn= Wye kv=0.22 kva=15 tap=1

New Transformer.IT54_4569 phases=1 Windings=3 Xhl=0.5 %loadLoss =0.5 %noloadLoss =0.2
 ~ wdg=1 bus=97736_1.2 conn= Wye kv=7.97 kva=25 tap=0.956
 ~ wdg=2 bus=BT_54_4569.1.0  conn= Wye kv=0.22 kva=25 tap=1
 ~ wdg=3 bus=BT_54_4569.0.2  conn= Wye kv=0.22 kva=25 tap=1

New Transformer.IT54_4632 phases=1 Windings=3 Xhl=0.5 %loadLoss =0.5 %noloadLoss =0.2
 ~ wdg=1 bus=25559_1.1 conn= Wye kv=7.97 kva=5 tap=1
 ~ wdg=2 bus=BT_54_4632.1.0  conn= Wye kv=0.22 kva=5 tap=1
 ~ wdg=3 bus=BT_54_4632.0.2  conn= Wye kv=0.22 kva=5 tap=1

New Transformer.IT54_4703 phases=3 Windings=2 Xhl=0.5 %loadLoss =1.65 %noloadLoss =0.41
 ~ wdg=1 bus=101812_1 conn= Delta kv=13.8 kva=45 tap=0.957
 ~ wdg=2 bus=BT_54_4703 conn= Wye kv=0.38 kva=45 tap=1

New Transformer.IT54_4735 phases=1 Windings=3 Xhl=0.5 %loadLoss =0.5 %noloadLoss =0.2
 ~ wdg=1 bus=80411_1.2 conn= Wye kv=7.97 kva=25 tap=1
 ~ wdg=2 bus=BT_54_4735.1.0  conn= Wye kv=0.22 kva=25 tap=1
 ~ wdg=3 bus=BT_54_4735.0.2  conn= Wye kv=0.22 kva=25 tap=1

New Transformer.IT54_4737 phases=1 Windings=3 Xhl=0.5 %loadLoss =0.5 %noloadLoss =0.2
 ~ wdg=1 bus=26292_1.2 conn= Wye kv=7.97 kva=25 tap=0.956
 ~ wdg=2 bus=BT_54_4737.1.0  conn= Wye kv=0.22 kva=25 tap=1
 ~ wdg=3 bus=BT_54_4737.0.2  conn= Wye kv=0.22 kva=25 tap=1

New Transformer.IT54_4779 phases=3 Windings=2 Xhl=0.5 %loadLoss =1.46 %noloadLoss =0.37
 ~ wdg=1 bus=23666_1 conn= Delta kv=13.8 kva=75 tap=0.913
 ~ wdg=2 bus=BT_54_4779 conn= Wye kv=0.38 kva=75 tap=1

New Transformer.IT54_4785 phases=1 Windings=3 Xhl=0.5 %loadLoss =0.5 %noloadLoss =0.2
 ~ wdg=1 bus=96284_1.2 conn= Wye kv=7.97 kva=15 tap=1
 ~ wdg=2 bus=BT_54_4785.1.0  conn= Wye kv=0.22 kva=15 tap=1
 ~ wdg=3 bus=BT_54_4785.0.2  conn= Wye kv=0.22 kva=15 tap=1

New Transformer.IT54_4801 phases=1 Windings=3 Xhl=0.5 %loadLoss =0.5 %noloadLoss =0.2
 ~ wdg=1 bus=26330_1.2 conn= Wye kv=7.97 kva=15 tap=0.956
 ~ wdg=2 bus=BT_54_4801.1.0  conn= Wye kv=0.22 kva=15 tap=1
 ~ wdg=3 bus=BT_54_4801.0.2  conn= Wye kv=0.22 kva=15 tap=1

New Transformer.IT54_4859 phases=1 Windings=3 Xhl=0.5 %loadLoss =0.5 %noloadLoss =0.2
 ~ wdg=1 bus=27817_1.3 conn= Wye kv=7.97 kva=25 tap=0.956
 ~ wdg=2 bus=BT_54_4859.1.0  conn= Wye kv=0.22 kva=25 tap=1
 ~ wdg=3 bus=BT_54_4859.0.2  conn= Wye kv=0.22 kva=25 tap=1

New Transformer.IT54_4940 phases=3 Windings=2 Xhl=0.5 %loadLoss =1.46 %noloadLoss =0.37
 ~ wdg=1 bus=45437_1 conn= Delta kv=13.8 kva=75 tap=0.87
 ~ wdg=2 bus=BT_54_4940 conn= Wye kv=0.38 kva=75 tap=1

New Transformer.IT54_4941 phases=3 Windings=2 Xhl=0.5 %loadLoss =1.65 %noloadLoss =0.41
 ~ wdg=1 bus=23259_1 conn= Delta kv=13.8 kva=45 tap=0.957
 ~ wdg=2 bus=BT_54_4941 conn= Wye kv=0.38 kva=45 tap=1

New Transformer.IT54_4942 phases=3 Windings=2 Xhl=0.5 %loadLoss =1.65 %noloadLoss =0.41
 ~ wdg=1 bus=28181_1 conn= Delta kv=13.8 kva=45 tap=1
 ~ wdg=2 bus=BT_54_4942 conn= Wye kv=0.38 kva=45 tap=1

New Transformer.IT54_4965 phases=1 Windings=3 Xhl=0.5 %loadLoss =0.5 %noloadLoss =0.2
 ~ wdg=1 bus=106195_1.2 conn= Wye kv=7.97 kva=25 tap=0.956
 ~ wdg=2 bus=BT_54_4965.1.0  conn= Wye kv=0.22 kva=25 tap=1
 ~ wdg=3 bus=BT_54_4965.0.2  conn= Wye kv=0.22 kva=25 tap=1

New Transformer.IT54_4991 phases=1 Windings=3 Xhl=0.5 %loadLoss =0.5 %noloadLoss =0.2
 ~ wdg=1 bus=24032_1.3 conn= Wye kv=7.97 kva=25 tap=0.913
 ~ wdg=2 bus=BT_54_4991.1.0  conn= Wye kv=0.22 kva=25 tap=1
 ~ wdg=3 bus=BT_54_4991.0.2  conn= Wye kv=0.22 kva=25 tap=1

New Transformer.IT54_5047 phases=1 Windings=3 Xhl=0.5 %loadLoss =0.5 %noloadLoss =0.2
 ~ wdg=1 bus=31972_1.2 conn= Wye kv=7.97 kva=5 tap=0.956
 ~ wdg=2 bus=BT_54_5047.1.0  conn= Wye kv=0.22 kva=5 tap=1
 ~ wdg=3 bus=BT_54_5047.0.2  conn= Wye kv=0.22 kva=5 tap=1

New Transformer.IT54_5081 phases=1 Windings=3 Xhl=0.5 %loadLoss =0.5 %noloadLoss =0.2
 ~ wdg=1 bus=26291_1.2 conn= Wye kv=7.97 kva=15 tap=0.956
 ~ wdg=2 bus=BT_54_5081.1.0  conn= Wye kv=0.22 kva=15 tap=1
 ~ wdg=3 bus=BT_54_5081.0.2  conn= Wye kv=0.22 kva=15 tap=1

New Transformer.IT54_5129 phases=3 Windings=2 Xhl=0.5 %loadLoss =1.81 %noloadLoss =0.47
 ~ wdg=1 bus=109956_1 conn= Delta kv=13.8 kva=30 tap=0.957
 ~ wdg=2 bus=BT_54_5129 conn= Wye kv=0.38 kva=30 tap=1

New Transformer.IT54_5210 phases=3 Windings=2 Xhl=0.5 %loadLoss =1.81 %noloadLoss =0.47
 ~ wdg=1 bus=30663_1 conn= Delta kv=13.8 kva=30 tap=0.957
 ~ wdg=2 bus=BT_54_5210 conn= Wye kv=0.38 kva=30 tap=1

New Transformer.IT54_5211 phases=1 Windings=3 Xhl=0.5 %loadLoss =0.5 %noloadLoss =0.2
 ~ wdg=1 bus=24024_2.2 conn= Wye kv=7.97 kva=25 tap=0.956
 ~ wdg=2 bus=BT_54_5211.1.0  conn= Wye kv=0.22 kva=25 tap=1
 ~ wdg=3 bus=BT_54_5211.0.2  conn= Wye kv=0.22 kva=25 tap=1

New Transformer.IT54_5300 phases=3 Windings=2 Xhl=0.5 %loadLoss =1.65 %noloadLoss =0.41
 ~ wdg=1 bus=110093_1 conn= Delta kv=13.8 kva=45 tap=0.957
 ~ wdg=2 bus=BT_54_5300 conn= Wye kv=0.38 kva=45 tap=1

New Transformer.IT54_5397 phases=3 Windings=2 Xhl=0.5 %loadLoss =1.81 %noloadLoss =0.47
 ~ wdg=1 bus=25963_1 conn= Delta kv=13.8 kva=30 tap=0.957
 ~ wdg=2 bus=BT_54_5397 conn= Wye kv=0.38 kva=30 tap=1

New Transformer.IT54_5398 phases=1 Windings=3 Xhl=0.5 %loadLoss =0.5 %noloadLoss =0.2
 ~ wdg=1 bus=25975_1.1 conn= Wye kv=7.97 kva=15 tap=0.956
 ~ wdg=2 bus=BT_54_5398.1.0  conn= Wye kv=0.22 kva=15 tap=1
 ~ wdg=3 bus=BT_54_5398.0.2  conn= Wye kv=0.22 kva=15 tap=1

New Transformer.IT54_5446 phases=1 Windings=3 Xhl=0.5 %loadLoss =0.5 %noloadLoss =0.2
 ~ wdg=1 bus=67262_1.3 conn= Wye kv=7.97 kva=10 tap=0.956
 ~ wdg=2 bus=BT_54_5446.1.0  conn= Wye kv=0.22 kva=10 tap=1
 ~ wdg=3 bus=BT_54_5446.0.2  conn= Wye kv=0.22 kva=10 tap=1

New Transformer.IT54_5455 phases=3 Windings=2 Xhl=0.5 %loadLoss =1.65 %noloadLoss =0.41
 ~ wdg=1 bus=127447_1 conn= Delta kv=13.8 kva=45 tap=0.957
 ~ wdg=2 bus=BT_54_5455 conn= Wye kv=0.38 kva=45 tap=1

New Transformer.IT54_5577 phases=1 Windings=3 Xhl=0.5 %loadLoss =0.5 %noloadLoss =0.2
 ~ wdg=1 bus=117314_1.1 conn= Wye kv=7.97 kva=25 tap=0.956
 ~ wdg=2 bus=BT_54_5577.1.0  conn= Wye kv=0.22 kva=25 tap=1
 ~ wdg=3 bus=BT_54_5577.0.2  conn= Wye kv=0.22 kva=25 tap=1

New Transformer.IT54_5578 phases=1 Windings=3 Xhl=0.5 %loadLoss =0.5 %noloadLoss =0.2
 ~ wdg=1 bus=31991_1.2 conn= Wye kv=7.97 kva=25 tap=1
 ~ wdg=2 bus=BT_54_5578.1.0  conn= Wye kv=0.22 kva=25 tap=1
 ~ wdg=3 bus=BT_54_5578.0.2  conn= Wye kv=0.22 kva=25 tap=1

New Transformer.IT54_5782 phases=1 Windings=3 Xhl=0.5 %loadLoss =0.5 %noloadLoss =0.2
 ~ wdg=1 bus=118385_1.3 conn= Wye kv=7.97 kva=10 tap=0.956
 ~ wdg=2 bus=BT_54_5782.1.0  conn= Wye kv=0.22 kva=10 tap=1
 ~ wdg=3 bus=BT_54_5782.0.2  conn= Wye kv=0.22 kva=10 tap=1

New Transformer.IT54_5783 phases=1 Windings=3 Xhl=0.5 %loadLoss =0.5 %noloadLoss =0.2
 ~ wdg=1 bus=24060_1.2 conn= Wye kv=7.97 kva=10 tap=0.956
 ~ wdg=2 bus=BT_54_5783.1.0  conn= Wye kv=0.22 kva=10 tap=1
 ~ wdg=3 bus=BT_54_5783.0.2  conn= Wye kv=0.22 kva=10 tap=1

New Transformer.IT54_5784 phases=1 Windings=3 Xhl=0.5 %loadLoss =0.5 %noloadLoss =0.2
 ~ wdg=1 bus=36396_1.3 conn= Wye kv=7.97 kva=10 tap=0.913
 ~ wdg=2 bus=BT_54_5784.1.0  conn= Wye kv=0.22 kva=10 tap=1
 ~ wdg=3 bus=BT_54_5784.0.2  conn= Wye kv=0.22 kva=10 tap=1

New Transformer.IT54_5841 phases=1 Windings=3 Xhl=0.5 %loadLoss =0.5 %noloadLoss =0.2
 ~ wdg=1 bus=13287_1.3 conn= Wye kv=7.97 kva=25 tap=0.913
 ~ wdg=2 bus=BT_54_5841.1.0  conn= Wye kv=0.22 kva=25 tap=1
 ~ wdg=3 bus=BT_54_5841.0.2  conn= Wye kv=0.22 kva=25 tap=1

New Transformer.IT54_6128 phases=1 Windings=3 Xhl=0.5 %loadLoss =0.5 %noloadLoss =0.2
 ~ wdg=1 bus=13286_1.1 conn= Wye kv=7.97 kva=15 tap=0.956
 ~ wdg=2 bus=BT_54_6128.1.0  conn= Wye kv=0.22 kva=15 tap=1
 ~ wdg=3 bus=BT_54_6128.0.2  conn= Wye kv=0.22 kva=15 tap=1

New Transformer.IT54_6132 phases=1 Windings=3 Xhl=0.5 %loadLoss =0.5 %noloadLoss =0.2
 ~ wdg=1 bus=65650_1.3 conn= Wye kv=7.97 kva=25 tap=0.956
 ~ wdg=2 bus=BT_54_6132.1.0  conn= Wye kv=0.22 kva=25 tap=1
 ~ wdg=3 bus=BT_54_6132.0.2  conn= Wye kv=0.22 kva=25 tap=1

New Transformer.IT54_6151 phases=1 Windings=3 Xhl=0.5 %loadLoss =0.5 %noloadLoss =0.2
 ~ wdg=1 bus=120246_1.3 conn= Wye kv=7.97 kva=25 tap=0.956
 ~ wdg=2 bus=BT_54_6151.1.0  conn= Wye kv=0.22 kva=25 tap=1
 ~ wdg=3 bus=BT_54_6151.0.2  conn= Wye kv=0.22 kva=25 tap=1

New Transformer.IT54_6177 phases=3 Windings=2 Xhl=0.5 %loadLoss =1.81 %noloadLoss =0.47
 ~ wdg=1 bus=121409_1 conn= Delta kv=13.8 kva=30 tap=0.913
 ~ wdg=2 bus=BT_54_6177 conn= Wye kv=0.38 kva=30 tap=1

New Transformer.IT54_6201 phases=1 Windings=3 Xhl=0.5 %loadLoss =0.5 %noloadLoss =0.2
 ~ wdg=1 bus=117980_1.1 conn= Wye kv=7.97 kva=5 tap=0.913
 ~ wdg=2 bus=BT_54_6201.1.0  conn= Wye kv=0.22 kva=5 tap=1
 ~ wdg=3 bus=BT_54_6201.0.2  conn= Wye kv=0.22 kva=5 tap=1

New Transformer.IT54_6238 phases=1 Windings=3 Xhl=0.5 %loadLoss =0.5 %noloadLoss =0.2
 ~ wdg=1 bus=37639_1.3 conn= Wye kv=7.97 kva=15 tap=0.913
 ~ wdg=2 bus=BT_54_6238.1.0  conn= Wye kv=0.22 kva=15 tap=1
 ~ wdg=3 bus=BT_54_6238.0.2  conn= Wye kv=0.22 kva=15 tap=1

New Transformer.IT54_625 phases=3 Windings=2 Xhl=0.5 %loadLoss =1.81 %noloadLoss =0.47
 ~ wdg=1 bus=51196_1 conn= Delta kv=13.8 kva=30 tap=1
 ~ wdg=2 bus=BT_54_625 conn= Wye kv=0.38 kva=30 tap=1

New Transformer.IT54_627 phases=1 Windings=3 Xhl=0.5 %loadLoss =0.5 %noloadLoss =0.2
 ~ wdg=1 bus=110660_1.1 conn= Wye kv=7.97 kva=10 tap=1
 ~ wdg=2 bus=BT_54_627.1.0  conn= Wye kv=0.22 kva=10 tap=1
 ~ wdg=3 bus=BT_54_627.0.2  conn= Wye kv=0.22 kva=10 tap=1

New Transformer.IT54_628 phases=1 Windings=3 Xhl=0.5 %loadLoss =0.5 %noloadLoss =0.2
 ~ wdg=1 bus=20303_1.1 conn= Wye kv=7.97 kva=7.5 tap=0.826
 ~ wdg=2 bus=BT_54_628.1.0  conn= Wye kv=0.22 kva=7.5 tap=1
 ~ wdg=3 bus=BT_54_628.0.2  conn= Wye kv=0.22 kva=7.5 tap=1

New Transformer.IT54_629 phases=1 Windings=3 Xhl=0.5 %loadLoss =0.5 %noloadLoss =0.2
 ~ wdg=1 bus=51194_1.1 conn= Wye kv=7.97 kva=15 tap=0.913
 ~ wdg=2 bus=BT_54_629.1.0  conn= Wye kv=0.22 kva=15 tap=1
 ~ wdg=3 bus=BT_54_629.0.2  conn= Wye kv=0.22 kva=15 tap=1

New Transformer.IT54_6292 phases=3 Windings=2 Xhl=0.5 %loadLoss =1.46 %noloadLoss =0.37
 ~ wdg=1 bus=51220_1 conn= Delta kv=13.8 kva=75 tap=0.957
 ~ wdg=2 bus=BT_54_6292 conn= Wye kv=0.38 kva=75 tap=1

New Transformer.IT54_6347 phases=1 Windings=3 Xhl=0.5 %loadLoss =0.5 %noloadLoss =0.2
 ~ wdg=1 bus=24091_1.2 conn= Wye kv=7.97 kva=10 tap=1
 ~ wdg=2 bus=BT_54_6347.1.0  conn= Wye kv=0.22 kva=10 tap=1
 ~ wdg=3 bus=BT_54_6347.0.2  conn= Wye kv=0.22 kva=10 tap=1

New Transformer.IT54_636 phases=3 Windings=2 Xhl=0.5 %loadLoss =1.81 %noloadLoss =0.47
 ~ wdg=1 bus=47362_1 conn= Delta kv=13.8 kva=30 tap=0.957
 ~ wdg=2 bus=BT_54_636 conn= Wye kv=0.38 kva=30 tap=1

New Transformer.IT54_637 phases=1 Windings=3 Xhl=0.5 %loadLoss =0.5 %noloadLoss =0.2
 ~ wdg=1 bus=143333_1.3 conn= Wye kv=7.97 kva=15 tap=1
 ~ wdg=2 bus=BT_54_637.1.0  conn= Wye kv=0.22 kva=15 tap=1
 ~ wdg=3 bus=BT_54_637.0.2  conn= Wye kv=0.22 kva=15 tap=1
